REMARK  Name = ../refined-set-2016/4qy3/4qy3_pocket.pdb
REMARK  111 active torsions:
REMARK  status: ('A' for Active; 'I' for Inactive)
REMARK    1  A    between atoms: _1  and  _5
REMARK    2  A    between atoms: _5  and  _6
REMARK    3  A    between atoms: _5  and  _8
REMARK    4  A    between atoms: _8  and  _9
REMARK    5  A    between atoms: _14  and  _16
REMARK    6  A    between atoms: _16  and  _17
REMARK    7  A    between atoms: _16  and  _19
REMARK    8  A    between atoms: _19  and  _20
REMARK    9  A    between atoms: _30  and  _32
REMARK   10  A    between atoms: _32  and  _33
REMARK   11  A    between atoms: _35  and  _37
REMARK   12  A    between atoms: _37  and  _38
REMARK   13  A    between atoms: _37  and  _40
REMARK   14  A    between atoms: _40  and  _41
REMARK   15  A    between atoms: _46  and  _47
REMARK   16  A    between atoms: _49  and  _51
REMARK   17  A    between atoms: _51  and  _52
REMARK   18  A    between atoms: _54  and  _56
REMARK   19  A    between atoms: _56  and  _57
REMARK   20  A    between atoms: _56  and  _59
REMARK   21  A    between atoms: _59  and  _60
REMARK   22  A    between atoms: _60  and  _61
REMARK   23  A    between atoms: _61  and  _62
REMARK   24  A    between atoms: _62  and  _63
REMARK   25  A    between atoms: _67  and  _69
REMARK   26  A    between atoms: _69  and  _70
REMARK   27  A    between atoms: _69  and  _72
REMARK   28  A    between atoms: _72  and  _73
REMARK   29  A    between atoms: _78  and  _80
REMARK   30  A    between atoms: _80  and  _81
REMARK   31  A    between atoms: _80  and  _83
REMARK   32  A    between atoms: _83  and  _84
REMARK   33  A    between atoms: _89  and  _91
REMARK   34  A    between atoms: _91  and  _92
REMARK   35  A    between atoms: _95  and  _96
REMARK   36  A    between atoms: _101  and  _103
REMARK   37  A    between atoms: _103  and  _104
REMARK   38  A    between atoms: _103  and  _106
REMARK   39  A    between atoms: _106  and  _107
REMARK   40  A    between atoms: _117  and  _119
REMARK   41  A    between atoms: _119  and  _120
REMARK   42  A    between atoms: _119  and  _122
REMARK   43  A    between atoms: _122  and  _123
REMARK   44  A    between atoms: _128  and  _130
REMARK   45  A    between atoms: _130  and  _131
REMARK   46  A    between atoms: _133  and  _135
REMARK   47  A    between atoms: _135  and  _136
REMARK   48  A    between atoms: _135  and  _138
REMARK   49  A    between atoms: _138  and  _139
REMARK   50  A    between atoms: _144  and  _146
REMARK   51  A    between atoms: _146  and  _147
REMARK   52  A    between atoms: _146  and  _149
REMARK   53  A    between atoms: _149  and  _150
REMARK   54  A    between atoms: _150  and  _151
REMARK   55  A    between atoms: _151  and  _152
REMARK   56  A    between atoms: _152  and  _153
REMARK   57  A    between atoms: _157  and  _159
REMARK   58  A    between atoms: _159  and  _160
REMARK   59  A    between atoms: _159  and  _162
REMARK   60  A    between atoms: _162  and  _163
REMARK   61  A    between atoms: _168  and  _170
REMARK   62  A    between atoms: _170  and  _171
REMARK   63  A    between atoms: _170  and  _173
REMARK   64  A    between atoms: _173  and  _174
REMARK   65  A    between atoms: _180  and  _182
REMARK   66  A    between atoms: _182  and  _183
REMARK   67  A    between atoms: _182  and  _185
REMARK   68  A    between atoms: _185  and  _186
REMARK   69  A    between atoms: _191  and  _193
REMARK   70  A    between atoms: _193  and  _194
REMARK   71  A    between atoms: _196  and  _198
REMARK   72  A    between atoms: _198  and  _199
REMARK   73  A    between atoms: _198  and  _201
REMARK   74  A    between atoms: _201  and  _202
REMARK   75  A    between atoms: _202  and  _203
REMARK   76  A    between atoms: _206  and  _208
REMARK   77  A    between atoms: _208  and  _209
REMARK   78  A    between atoms: _208  and  _211
REMARK   79  A    between atoms: _211  and  _212
REMARK   80  A    between atoms: _212  and  _213
REMARK   81  A    between atoms: _217  and  _218
REMARK   82  A    between atoms: _223  and  _225
REMARK   83  A    between atoms: _225  and  _226
REMARK   84  A    between atoms: _225  and  _228
REMARK   85  A    between atoms: _228  and  _229
REMARK   86  A    between atoms: _229  and  _230
REMARK   87  A    between atoms: _233  and  _235
REMARK   88  A    between atoms: _235  and  _236
REMARK   89  A    between atoms: _235  and  _238
REMARK   90  A    between atoms: _238  and  _239
REMARK   91  A    between atoms: _239  and  _240
REMARK   92  A    between atoms: _243  and  _245
REMARK   93  A    between atoms: _245  and  _246
REMARK   94  A    between atoms: _245  and  _248
REMARK   95  A    between atoms: _248  and  _249
REMARK   96  A    between atoms: _252  and  _254
REMARK   97  A    between atoms: _254  and  _255
REMARK   98  A    between atoms: _254  and  _257
REMARK   99  A    between atoms: _257  and  _258
REMARK  100  A    between atoms: _258  and  _259
REMARK  101  A    between atoms: _261  and  _263
REMARK  102  A    between atoms: _263  and  _264
REMARK  103  A    between atoms: _263  and  _266
REMARK  104  A    between atoms: _269  and  _271
REMARK  105  A    between atoms: _271  and  _272
REMARK  106  A    between atoms: _271  and  _274
REMARK  107  A    between atoms: _274  and  _275
REMARK  108  A    between atoms: _278  and  _280
REMARK  109  A    between atoms: _280  and  _281
REMARK  110  A    between atoms: _280  and  _283
REMARK  111  A    between atoms: _283  and  _284
REMARK                            x       y       z     vdW  Elec       q    Type
REMARK                         _______ _______ _______ _____ _____    ______ ____
ROOT
ATOM      1  C   TYR A   4       5.071  -9.058  11.190  0.00  0.00    +0.241 C 
ATOM      2  O   TYR A   4       4.711 -10.198  11.481  0.00  0.00    -0.273 OA
ATOM      3  N   GLY A   5       6.216  -8.810  10.559  0.00  0.00    -0.295 N 
ATOM      4  H   GLY A   5       6.474  -7.833  10.313  0.00  0.00    +0.150 HD
ENDROOT
BRANCH   3   5
ATOM      5  CA  GLY A   5       7.110  -9.913  10.213  0.00  0.00    +0.176 C 
BRANCH   5   6
ATOM      6  C   GLY A   5       8.100 -10.195  11.337  0.00  0.00    +0.243 C 
ATOM      7  O   GLY A   5       8.163  -9.476  12.339  0.00  0.00    -0.273 OA
ATOM      8  N   LYS A   6       8.895 -11.243  11.172  0.00  0.00    -0.297 N 
ATOM      9  H   LYS A   6       8.810 -11.821  10.311  0.00  0.00    +0.150 HD
BRANCH   8  10
ATOM     10  CA  LYS A   6       9.886 -11.597  12.179  0.00  0.00    +0.149 C 
BRANCH  10  11
ATOM     11  C   LYS A   6      10.865 -10.455  12.388  0.00  0.00    +0.241 C 
ATOM     12  O   LYS A   6      11.329 -10.204  13.503  0.00  0.00    -0.273 OA
ATOM     13  N   HIS A   7      11.134  -9.718  11.321  0.00  0.00    -0.297 N 
ATOM     14  H   HIS A   7      10.641  -9.889  10.422  0.00  0.00    +0.150 HD
BRANCH  13  15
ATOM     15  CA  HIS A   7      12.120  -8.677  11.428  0.00  0.00    +0.155 C 
BRANCH  15  16
ATOM     16  C   HIS A   7      11.647  -7.275  11.721  0.00  0.00    +0.241 C 
ATOM     17  O   HIS A   7      12.448  -6.410  12.059  0.00  0.00    -0.273 OA
ATOM     18  N   ASN A   8      10.340  -7.039  11.641  0.00  0.00    -0.297 N 
ATOM     19  H   ASN A   8       9.677  -7.804  11.402  0.00  0.00    +0.150 HD
BRANCH  18  20
ATOM     20  CA  ASN A   8       9.855  -5.689  11.895  0.00  0.00    +0.158 C 
BRANCH  20  21
ATOM     21  C   ASN A   8       8.584  -5.716  12.732  0.00  0.00    +0.241 C 
ATOM     22  N   GLY A   9       8.300  -6.875  13.324  0.00  0.00    -0.295 N 
ATOM     23  H   GLY A   9       8.965  -7.669  13.232  0.00  0.00    +0.150 HD
ATOM     24  O   ASN A   8       7.920  -4.692  12.877  0.00  0.00    -0.273 OA
BRANCH  22  25
ATOM     25  CA  GLY A   9       7.073  -7.056  14.101  0.00  0.00    +0.176 C 
BRANCH  25  26
ATOM     26  C   GLY A   9       7.020  -6.457  15.500  0.00  0.00    +0.246 C 
ATOM     27  N   PRO A  10       5.953  -6.760  16.256  0.00  0.00    -0.273 N 
ATOM     28  CA  PRO A  10       5.743  -6.254  17.620  0.00  0.00    +0.140 C 
ATOM     29  CB  PRO A  10       4.588  -7.118  18.132  0.00  0.00    +0.030 C 
ATOM     30  CG  PRO A  10       3.769  -7.327  16.886  0.00  0.00    +0.024 C 
ATOM     31  CD  PRO A  10       4.836  -7.627  15.830  0.00  0.00    +0.094 C 
ATOM     32  O   GLY A   9       7.911  -5.721  15.911  0.00  0.00    -0.273 OA
BRANCH  28  33
ATOM     33  C   PRO A  10       6.931  -6.263  18.565  0.00  0.00    +0.227 C 
ATOM     34  O   PRO A  10       7.040  -5.354  19.409  0.00  0.00    -0.286 OA
ENDBRANCH  28  33
ENDBRANCH  25  26
ENDBRANCH  22  25
ENDBRANCH  20  21
BRANCH  20  35
ATOM     35  CB  ASN A   8       9.577  -4.979  10.555  0.00  0.00    +0.114 C 
BRANCH  35  36
ATOM     36  CG  ASN A   8       8.478  -5.648   9.740  0.00  0.00    +0.222 C 
ATOM     37  OD1 ASN A   8       7.993  -6.703  10.101  0.00  0.00    -0.275 OA
ATOM     38  ND2 ASN A   8       8.105  -5.042   8.601  0.00  0.00    -0.329 N 
ATOM     39 HD21 ASN A   8       8.542  -4.140   8.325  0.00  0.00    +0.145 HD
ATOM     40 HD22 ASN A   8       7.379  -5.475   7.995  0.00  0.00    +0.145 HD
ENDBRANCH  35  36
ENDBRANCH  20  35
ENDBRANCH  18  20
ENDBRANCH  15  16
BRANCH  15  41
ATOM     41  CB  HIS A   7      13.004  -8.739  10.175  0.00  0.00    +0.076 C 
BRANCH  41  42
ATOM     42  CG  HIS A   7      13.658 -10.082   9.999  0.00  0.00    +0.082 A 
ATOM     43  CD2 HIS A   7      14.577 -10.731  10.755  0.00  0.00    +0.115 A 
ATOM     44  NE2 HIS A   7      14.762 -11.973  10.197  0.00  0.00    -0.221 NA
ATOM     45  CE1 HIS A   7      13.989 -12.086   9.132  0.00  0.00    +0.199 A 
ATOM     46  ND1 HIS A   7      13.312 -10.957   8.990  0.00  0.00    -0.227 NA
ENDBRANCH  41  42
ENDBRANCH  15  41
ENDBRANCH  13  15
ENDBRANCH  10  11
BRANCH  10  47
ATOM     47  CB  LYS A   6      10.660 -12.853  11.740  0.00  0.00    +0.029 C 
BRANCH  47  48
ATOM     48  CG  LYS A   6      11.702 -13.296  12.762  0.00  0.00    +0.000 C 
BRANCH  48  49
ATOM     49  CD  LYS A   6      12.036 -14.782  12.624  0.00  0.00    -0.024 C 
BRANCH  49  50
ATOM     50  CE  LYS A   6      12.696 -15.305  13.901  0.00  0.00    -0.086 C 
BRANCH  50  51
ATOM     51  NZ  LYS A   6      12.919 -16.802  13.899  0.00  0.00    +0.380 N 
ATOM     52  HZ1 LYS A   6      13.369 -17.085  14.793  0.00  0.00    -0.089 HD
ATOM     53  HZ2 LYS A   6      12.005 -17.287  13.800  0.00  0.00    -0.089 HD
ATOM     54  HZ3 LYS A   6      13.537 -17.058  13.102  0.00  0.00    -0.089 HD
ENDBRANCH  50  51
ENDBRANCH  49  50
ENDBRANCH  48  49
ENDBRANCH  47  48
ENDBRANCH  10  47
ENDBRANCH   8  10
ENDBRANCH   5   6
ENDBRANCH   3   5
BRANCH   1  55
ATOM     55  CA  TYR A   4       4.200  -7.846  11.539  0.00  0.00    +0.153 C 
BRANCH  55  58
ATOM     56  C   GLY A   3       4.841  -5.503  11.336  0.00  0.00    +0.243 C 
ATOM     57  O   GLY A   3       4.850  -5.315  12.569  0.00  0.00    -0.273 OA
ATOM     58  N   TYR A   4       4.537  -6.661  10.768  0.00  0.00    -0.297 N 
ATOM     59  H   TYR A   4       4.540  -6.724   9.730  0.00  0.00    +0.150 HD
BRANCH  56  60
ATOM     60  CA  GLY A   3       5.152  -4.384  10.360  0.00  0.00    +0.176 C 
BRANCH  60  62
ATOM     61  C   TRP A   2       6.310  -2.270  10.355  0.00  0.00    +0.241 C 
ATOM     62  N   GLY A   3       6.101  -3.448  10.930  0.00  0.00    -0.295 N 
ATOM     63  H   GLY A   3       6.621  -3.701  11.794  0.00  0.00    +0.150 HD
ATOM     64  O   TRP A   2       5.745  -1.907   9.305  0.00  0.00    -0.273 OA
BRANCH  61  65
ATOM     65  CA  TRP A   2       7.300  -1.379  11.080  0.00  0.00    +0.153 C 
BRANCH  65  67
ATOM     66  C   HIS A   1       8.736  -0.721   9.252  0.00  0.00    +0.203 C 
ATOM     67  N   TRP A   2       7.951  -0.375  10.261  0.00  0.00    -0.300 N 
ATOM     68  H   TRP A   2       7.799   0.633  10.469  0.00  0.00    +0.150 HD
ATOM     69  O   HIS A   1       8.895  -1.897   8.903  0.00  0.00    -0.277 OA
BRANCH  66  70
ATOM     70  CA  HIS A   1       9.425   0.421   8.503  0.00  0.00    +0.019 C 
BRANCH  70  71
ATOM     71  N   HIS A   1       9.610   0.064   7.071  0.00  0.00    +0.388 N 
ATOM     72  H1  HIS A   1      10.198  -0.791   7.001  0.00  0.00    -0.089 HD
ATOM     73  H2  HIS A   1       8.682  -0.115   6.637  0.00  0.00    -0.089 HD
ATOM     74  H3  HIS A   1      10.079   0.850   6.577  0.00  0.00    -0.089 HD
ENDBRANCH  70  71
BRANCH  70  75
ATOM     75  CB  HIS A   1       8.633   1.731   8.619  0.00  0.00    +0.035 C 
BRANCH  75  76
ATOM     76  CG  HIS A   1       7.628   1.932   7.527  0.00  0.00    +0.078 A 
ATOM     77  ND1 HIS A   1       7.328   3.177   7.017  0.00  0.00    -0.227 NA
ATOM     78  CE1 HIS A   1       6.423   3.054   6.060  0.00  0.00    +0.199 A 
ATOM     79  NE2 HIS A   1       6.125   1.772   5.933  0.00  0.00    -0.221 NA
ATOM     80  CD2 HIS A   1       6.864   1.049   6.840  0.00  0.00    +0.115 A 
ENDBRANCH  75  76
ENDBRANCH  70  75
ENDBRANCH  66  70
ENDBRANCH  65  67
BRANCH  65  81
ATOM     81  CB  TRP A   2       6.602  -0.708  12.268  0.00  0.00    +0.057 C 
BRANCH  81  82
ATOM     82  CG  TRP A   2       5.340   0.046  11.914  0.00  0.00    -0.002 A 
ATOM     83  CD2 TRP A   2       4.017  -0.480  11.936  0.00  0.00    +0.013 A 
ATOM     84  CE3 TRP A   2       3.489  -1.739  12.220  0.00  0.00    +0.001 A 
ATOM     85  CZ3 TRP A   2       2.129  -1.920  12.157  0.00  0.00    +0.000 A 
ATOM     86  CH2 TRP A   2       1.275  -0.866  11.813  0.00  0.00    +0.001 A 
ATOM     87  CZ2 TRP A   2       1.759   0.380  11.523  0.00  0.00    +0.017 A 
ATOM     88  CE2 TRP A   2       3.135   0.566  11.587  0.00  0.00    +0.056 A 
ATOM     89  NE1 TRP A   2       3.894   1.686  11.356  0.00  0.00    -0.352 N 
ATOM     90  HE1 TRP A   2       3.530   2.620  11.079  0.00  0.00    +0.166 HD
ATOM     91  CD1 TRP A   2       5.220   1.363  11.553  0.00  0.00    +0.068 A 
ENDBRANCH  81  82
ENDBRANCH  65  81
ENDBRANCH  61  65
ENDBRANCH  60  62
ENDBRANCH  56  60
ENDBRANCH  55  58
BRANCH  55  92
ATOM     92  CB  TYR A   4       2.724  -8.174  11.322  0.00  0.00    +0.055 C 
BRANCH  92  93
ATOM     93  CG  TYR A   4       1.780  -7.090  11.834  0.00  0.00    -0.020 A 
ATOM     94  CD2 TYR A   4       1.414  -7.046  13.186  0.00  0.00    -0.001 A 
ATOM     95  CE2 TYR A   4       0.566  -6.036  13.663  0.00  0.00    +0.036 A 
ATOM     96  CZ  TYR A   4       0.083  -5.059  12.792  0.00  0.00    +0.134 A 
ATOM     97  CE1 TYR A   4       0.451  -5.089  11.452  0.00  0.00    +0.036 A 
ATOM     98  CD1 TYR A   4       1.279  -6.095  10.986  0.00  0.00    -0.001 A 
BRANCH  96  99
ATOM     99  OH  TYR A   4      -0.799  -4.089  13.223  0.00  0.00    -0.506 OA
ATOM    100  HH  TYR A   4      -0.961  -4.199  14.193  0.00  0.00    +0.292 HD
ENDBRANCH  96  99
ENDBRANCH  92  93
ENDBRANCH  55  92
ENDBRANCH   1  55
TORSDOF 35
REMARK  Name = ../refined-set-2016/4qy3/4qy3_pocket.pdb
REMARK  111 active torsions:
REMARK  status: ('A' for Active; 'I' for Inactive)
REMARK    1  A    between atoms: _1  and  _5
REMARK    2  A    between atoms: _5  and  _6
REMARK    3  A    between atoms: _5  and  _8
REMARK    4  A    between atoms: _8  and  _9
REMARK    5  A    between atoms: _14  and  _16
REMARK    6  A    between atoms: _16  and  _17
REMARK    7  A    between atoms: _16  and  _19
REMARK    8  A    between atoms: _19  and  _20
REMARK    9  A    between atoms: _30  and  _32
REMARK   10  A    between atoms: _32  and  _33
REMARK   11  A    between atoms: _35  and  _37
REMARK   12  A    between atoms: _37  and  _38
REMARK   13  A    between atoms: _37  and  _40
REMARK   14  A    between atoms: _40  and  _41
REMARK   15  A    between atoms: _46  and  _47
REMARK   16  A    between atoms: _49  and  _51
REMARK   17  A    between atoms: _51  and  _52
REMARK   18  A    between atoms: _54  and  _56
REMARK   19  A    between atoms: _56  and  _57
REMARK   20  A    between atoms: _56  and  _59
REMARK   21  A    between atoms: _59  and  _60
REMARK   22  A    between atoms: _60  and  _61
REMARK   23  A    between atoms: _61  and  _62
REMARK   24  A    between atoms: _62  and  _63
REMARK   25  A    between atoms: _67  and  _69
REMARK   26  A    between atoms: _69  and  _70
REMARK   27  A    between atoms: _69  and  _72
REMARK   28  A    between atoms: _72  and  _73
REMARK   29  A    between atoms: _78  and  _80
REMARK   30  A    between atoms: _80  and  _81
REMARK   31  A    between atoms: _80  and  _83
REMARK   32  A    between atoms: _83  and  _84
REMARK   33  A    between atoms: _89  and  _91
REMARK   34  A    between atoms: _91  and  _92
REMARK   35  A    between atoms: _95  and  _96
REMARK   36  A    between atoms: _101  and  _103
REMARK   37  A    between atoms: _103  and  _104
REMARK   38  A    between atoms: _103  and  _106
REMARK   39  A    between atoms: _106  and  _107
REMARK   40  A    between atoms: _117  and  _119
REMARK   41  A    between atoms: _119  and  _120
REMARK   42  A    between atoms: _119  and  _122
REMARK   43  A    between atoms: _122  and  _123
REMARK   44  A    between atoms: _128  and  _130
REMARK   45  A    between atoms: _130  and  _131
REMARK   46  A    between atoms: _133  and  _135
REMARK   47  A    between atoms: _135  and  _136
REMARK   48  A    between atoms: _135  and  _138
REMARK   49  A    between atoms: _138  and  _139
REMARK   50  A    between atoms: _144  and  _146
REMARK   51  A    between atoms: _146  and  _147
REMARK   52  A    between atoms: _146  and  _149
REMARK   53  A    between atoms: _149  and  _150
REMARK   54  A    between atoms: _150  and  _151
REMARK   55  A    between atoms: _151  and  _152
REMARK   56  A    between atoms: _152  and  _153
REMARK   57  A    between atoms: _157  and  _159
REMARK   58  A    between atoms: _159  and  _160
REMARK   59  A    between atoms: _159  and  _162
REMARK   60  A    between atoms: _162  and  _163
REMARK   61  A    between atoms: _168  and  _170
REMARK   62  A    between atoms: _170  and  _171
REMARK   63  A    between atoms: _170  and  _173
REMARK   64  A    between atoms: _173  and  _174
REMARK   65  A    between atoms: _180  and  _182
REMARK   66  A    between atoms: _182  and  _183
REMARK   67  A    between atoms: _182  and  _185
REMARK   68  A    between atoms: _185  and  _186
REMARK   69  A    between atoms: _191  and  _193
REMARK   70  A    between atoms: _193  and  _194
REMARK   71  A    between atoms: _196  and  _198
REMARK   72  A    between atoms: _198  and  _199
REMARK   73  A    between atoms: _198  and  _201
REMARK   74  A    between atoms: _201  and  _202
REMARK   75  A    between atoms: _202  and  _203
REMARK   76  A    between atoms: _206  and  _208
REMARK   77  A    between atoms: _208  and  _209
REMARK   78  A    between atoms: _208  and  _211
REMARK   79  A    between atoms: _211  and  _212
REMARK   80  A    between atoms: _212  and  _213
REMARK   81  A    between atoms: _217  and  _218
REMARK   82  A    between atoms: _223  and  _225
REMARK   83  A    between atoms: _225  and  _226
REMARK   84  A    between atoms: _225  and  _228
REMARK   85  A    between atoms: _228  and  _229
REMARK   86  A    between atoms: _229  and  _230
REMARK   87  A    between atoms: _233  and  _235
REMARK   88  A    between atoms: _235  and  _236
REMARK   89  A    between atoms: _235  and  _238
REMARK   90  A    between atoms: _238  and  _239
REMARK   91  A    between atoms: _239  and  _240
REMARK   92  A    between atoms: _243  and  _245
REMARK   93  A    between atoms: _245  and  _246
REMARK   94  A    between atoms: _245  and  _248
REMARK   95  A    between atoms: _248  and  _249
REMARK   96  A    between atoms: _252  and  _254
REMARK   97  A    between atoms: _254  and  _255
REMARK   98  A    between atoms: _254  and  _257
REMARK   99  A    between atoms: _257  and  _258
REMARK  100  A    between atoms: _258  and  _259
REMARK  101  A    between atoms: _261  and  _263
REMARK  102  A    between atoms: _263  and  _264
REMARK  103  A    between atoms: _263  and  _266
REMARK  104  A    between atoms: _269  and  _271
REMARK  105  A    between atoms: _271  and  _272
REMARK  106  A    between atoms: _271  and  _274
REMARK  107  A    between atoms: _274  and  _275
REMARK  108  A    between atoms: _278  and  _280
REMARK  109  A    between atoms: _280  and  _281
REMARK  110  A    between atoms: _280  and  _283
REMARK  111  A    between atoms: _283  and  _284
REMARK                            x       y       z     vdW  Elec       q    Type
REMARK                         _______ _______ _______ _____ _____    ______ ____
ROOT
ATOM      1  CG  TRP A   1       6.289  -2.494  16.760  0.00  0.00    -0.002 A 
ATOM      2  CD2 TRP A   1       4.903  -2.829  16.741  0.00  0.00    +0.013 A 
ATOM      3  CE3 TRP A   1       3.853  -2.662  17.659  0.00  0.00    +0.001 A 
ATOM      4  CZ3 TRP A   1       2.596  -3.117  17.317  0.00  0.00    +0.000 A 
ATOM      5  CH2 TRP A   1       2.350  -3.739  16.076  0.00  0.00    +0.001 A 
ATOM      6  CZ2 TRP A   1       3.356  -3.926  15.153  0.00  0.00    +0.017 A 
ATOM      7  CE2 TRP A   1       4.637  -3.461  15.500  0.00  0.00    +0.056 A 
ATOM      8  NE1 TRP A   1       5.809  -3.513  14.790  0.00  0.00    -0.352 N 
ATOM      9  HE1 TRP A   1       5.931  -3.926  13.843  0.00  0.00    +0.166 HD
ATOM     10  CD1 TRP A   1       6.804  -2.920  15.553  0.00  0.00    +0.068 A 
ENDROOT
BRANCH   1  11
ATOM     11  CB  TRP A   1       7.032  -1.797  17.903  0.00  0.00    +0.053 C 
BRANCH  11  12
ATOM     12  CA  TRP A   1       8.557  -1.754  17.751  0.00  0.00    +0.137 C 
BRANCH  12  13
ATOM     13  N   TRP A   1       9.105  -3.110  17.728  0.00  0.00    -0.239 NA
ATOM     14  H   TRP A   1       8.477  -3.934  17.820  0.00  0.00    +0.142 HD
ENDBRANCH  12  13
BRANCH  12  15
ATOM     15  C   TRP A   1       9.121  -0.796  18.784  0.00  0.00    +0.224 C 
ATOM     16  O   TRP A   1       9.250   0.416  18.519  0.00  0.00    -0.287 OA
ENDBRANCH  12  15
ENDBRANCH  11  12
ENDBRANCH   1  11
TORSDOF 4
REMARK  Name = ../refined-set-2016/4qy3/4qy3_pocket.pdb
REMARK  111 active torsions:
REMARK  status: ('A' for Active; 'I' for Inactive)
REMARK    1  A    between atoms: _1  and  _5
REMARK    2  A    between atoms: _5  and  _6
REMARK    3  A    between atoms: _5  and  _8
REMARK    4  A    between atoms: _8  and  _9
REMARK    5  A    between atoms: _14  and  _16
REMARK    6  A    between atoms: _16  and  _17
REMARK    7  A    between atoms: _16  and  _19
REMARK    8  A    between atoms: _19  and  _20
REMARK    9  A    between atoms: _30  and  _32
REMARK   10  A    between atoms: _32  and  _33
REMARK   11  A    between atoms: _35  and  _37
REMARK   12  A    between atoms: _37  and  _38
REMARK   13  A    between atoms: _37  and  _40
REMARK   14  A    between atoms: _40  and  _41
REMARK   15  A    between atoms: _46  and  _47
REMARK   16  A    between atoms: _49  and  _51
REMARK   17  A    between atoms: _51  and  _52
REMARK   18  A    between atoms: _54  and  _56
REMARK   19  A    between atoms: _56  and  _57
REMARK   20  A    between atoms: _56  and  _59
REMARK   21  A    between atoms: _59  and  _60
REMARK   22  A    between atoms: _60  and  _61
REMARK   23  A    between atoms: _61  and  _62
REMARK   24  A    between atoms: _62  and  _63
REMARK   25  A    between atoms: _67  and  _69
REMARK   26  A    between atoms: _69  and  _70
REMARK   27  A    between atoms: _69  and  _72
REMARK   28  A    between atoms: _72  and  _73
REMARK   29  A    between atoms: _78  and  _80
REMARK   30  A    between atoms: _80  and  _81
REMARK   31  A    between atoms: _80  and  _83
REMARK   32  A    between atoms: _83  and  _84
REMARK   33  A    between atoms: _89  and  _91
REMARK   34  A    between atoms: _91  and  _92
REMARK   35  A    between atoms: _95  and  _96
REMARK   36  A    between atoms: _101  and  _103
REMARK   37  A    between atoms: _103  and  _104
REMARK   38  A    between atoms: _103  and  _106
REMARK   39  A    between atoms: _106  and  _107
REMARK   40  A    between atoms: _117  and  _119
REMARK   41  A    between atoms: _119  and  _120
REMARK   42  A    between atoms: _119  and  _122
REMARK   43  A    between atoms: _122  and  _123
REMARK   44  A    between atoms: _128  and  _130
REMARK   45  A    between atoms: _130  and  _131
REMARK   46  A    between atoms: _133  and  _135
REMARK   47  A    between atoms: _135  and  _136
REMARK   48  A    between atoms: _135  and  _138
REMARK   49  A    between atoms: _138  and  _139
REMARK   50  A    between atoms: _144  and  _146
REMARK   51  A    between atoms: _146  and  _147
REMARK   52  A    between atoms: _146  and  _149
REMARK   53  A    between atoms: _149  and  _150
REMARK   54  A    between atoms: _150  and  _151
REMARK   55  A    between atoms: _151  and  _152
REMARK   56  A    between atoms: _152  and  _153
REMARK   57  A    between atoms: _157  and  _159
REMARK   58  A    between atoms: _159  and  _160
REMARK   59  A    between atoms: _159  and  _162
REMARK   60  A    between atoms: _162  and  _163
REMARK   61  A    between atoms: _168  and  _170
REMARK   62  A    between atoms: _170  and  _171
REMARK   63  A    between atoms: _170  and  _173
REMARK   64  A    between atoms: _173  and  _174
REMARK   65  A    between atoms: _180  and  _182
REMARK   66  A    between atoms: _182  and  _183
REMARK   67  A    between atoms: _182  and  _185
REMARK   68  A    between atoms: _185  and  _186
REMARK   69  A    between atoms: _191  and  _193
REMARK   70  A    between atoms: _193  and  _194
REMARK   71  A    between atoms: _196  and  _198
REMARK   72  A    between atoms: _198  and  _199
REMARK   73  A    between atoms: _198  and  _201
REMARK   74  A    between atoms: _201  and  _202
REMARK   75  A    between atoms: _202  and  _203
REMARK   76  A    between atoms: _206  and  _208
REMARK   77  A    between atoms: _208  and  _209
REMARK   78  A    between atoms: _208  and  _211
REMARK   79  A    between atoms: _211  and  _212
REMARK   80  A    between atoms: _212  and  _213
REMARK   81  A    between atoms: _217  and  _218
REMARK   82  A    between atoms: _223  and  _225
REMARK   83  A    between atoms: _225  and  _226
REMARK   84  A    between atoms: _225  and  _228
REMARK   85  A    between atoms: _228  and  _229
REMARK   86  A    between atoms: _229  and  _230
REMARK   87  A    between atoms: _233  and  _235
REMARK   88  A    between atoms: _235  and  _236
REMARK   89  A    between atoms: _235  and  _238
REMARK   90  A    between atoms: _238  and  _239
REMARK   91  A    between atoms: _239  and  _240
REMARK   92  A    between atoms: _243  and  _245
REMARK   93  A    between atoms: _245  and  _246
REMARK   94  A    between atoms: _245  and  _248
REMARK   95  A    between atoms: _248  and  _249
REMARK   96  A    between atoms: _252  and  _254
REMARK   97  A    between atoms: _254  and  _255
REMARK   98  A    between atoms: _254  and  _257
REMARK   99  A    between atoms: _257  and  _258
REMARK  100  A    between atoms: _258  and  _259
REMARK  101  A    between atoms: _261  and  _263
REMARK  102  A    between atoms: _263  and  _264
REMARK  103  A    between atoms: _263  and  _266
REMARK  104  A    between atoms: _269  and  _271
REMARK  105  A    between atoms: _271  and  _272
REMARK  106  A    between atoms: _271  and  _274
REMARK  107  A    between atoms: _274  and  _275
REMARK  108  A    between atoms: _278  and  _280
REMARK  109  A    between atoms: _280  and  _281
REMARK  110  A    between atoms: _280  and  _283
REMARK  111  A    between atoms: _283  and  _284
REMARK                            x       y       z     vdW  Elec       q    Type
REMARK                         _______ _______ _______ _____ _____    ______ ____
ROOT
ATOM      1  CA  GLY A   2       0.242  -1.915   4.039  0.00  0.00    +0.176 C 
ENDROOT
BRANCH   1   4
ATOM      2  C   ASN A   1      -0.912   0.201   4.311  0.00  0.00    +0.239 C 
ATOM      3  O   ASN A   1       0.051   0.733   4.904  0.00  0.00    -0.274 OA
ATOM      4  N   GLY A   2      -0.909  -1.055   3.860  0.00  0.00    -0.296 N 
ATOM      5  H   GLY A   2      -1.750  -1.423   3.371  0.00  0.00    +0.150 HD
BRANCH   2   6
ATOM      6  CA  ASN A   1      -2.183   1.004   4.051  0.00  0.00    +0.154 C 
BRANCH   6   7
ATOM      7  N   ASN A   1      -3.336   0.181   3.648  0.00  0.00    -0.238 NA
ATOM      8  H   ASN A   1      -3.894  -0.332   4.360  0.00  0.00    +0.142 HD
ENDBRANCH   6   7
BRANCH   6   9
ATOM      9  CB  ASN A   1      -2.501   1.870   5.287  0.00  0.00    +0.111 C 
BRANCH   9  10
ATOM     10  CG  ASN A   1      -2.796   1.041   6.519  0.00  0.00    +0.221 C 
ATOM     11  ND2 ASN A   1      -3.298   1.686   7.579  0.00  0.00    -0.329 N 
ATOM     12 HD21 ASN A   1      -3.519   1.162   8.450  0.00  0.00    +0.145 HD
ATOM     13 HD22 ASN A   1      -3.467   2.711   7.532  0.00  0.00    +0.145 HD
ATOM     14  OD1 ASN A   1      -2.578  -0.156   6.516  0.00  0.00    -0.275 OA
ENDBRANCH   9  10
ENDBRANCH   6   9
ENDBRANCH   2   6
ENDBRANCH   1   4
BRANCH   1  15
ATOM     15  C   GLY A   2       0.290  -2.625   5.370  0.00  0.00    +0.243 C 
ATOM     16  N   HIS A   3      -0.694  -2.348   6.228  0.00  0.00    -0.298 N 
ATOM     17  H   HIS A   3      -1.423  -1.663   5.945  0.00  0.00    +0.150 HD
ATOM     18  O   GLY A   2       1.225  -3.396   5.620  0.00  0.00    -0.273 OA
BRANCH  16  19
ATOM     19  CA  HIS A   3      -0.791  -2.969   7.555  0.00  0.00    +0.143 C 
BRANCH  19  20
ATOM     20  C   HIS A   3      -2.165  -3.614   7.722  0.00  0.00    +0.227 C 
ATOM     21  O   HIS A   3      -2.270  -4.734   8.225  0.00  0.00    -0.286 OA
ENDBRANCH  19  20
BRANCH  19  22
ATOM     22  CB  HIS A   3      -0.546  -1.926   8.660  0.00  0.00    +0.075 C 
BRANCH  22  23
ATOM     23  CG  HIS A   3       0.730  -1.150   8.474  0.00  0.00    +0.082 A 
ATOM     24  ND1 HIS A   3       1.980  -1.732   8.571  0.00  0.00    -0.227 NA
ATOM     25  CE1 HIS A   3       2.912  -0.821   8.342  0.00  0.00    +0.199 A 
ATOM     26  NE2 HIS A   3       2.311   0.332   8.105  0.00  0.00    -0.221 NA
ATOM     27  CD2 HIS A   3       0.944   0.153   8.183  0.00  0.00    +0.115 A 
ENDBRANCH  22  23
ENDBRANCH  19  22
ENDBRANCH  16  19
ENDBRANCH   1  15
TORSDOF 10
REMARK  Name = ../refined-set-2016/4qy3/4qy3_pocket.pdb
REMARK  111 active torsions:
REMARK  status: ('A' for Active; 'I' for Inactive)
REMARK    1  A    between atoms: _1  and  _5
REMARK    2  A    between atoms: _5  and  _6
REMARK    3  A    between atoms: _5  and  _8
REMARK    4  A    between atoms: _8  and  _9
REMARK    5  A    between atoms: _14  and  _16
REMARK    6  A    between atoms: _16  and  _17
REMARK    7  A    between atoms: _16  and  _19
REMARK    8  A    between atoms: _19  and  _20
REMARK    9  A    between atoms: _30  and  _32
REMARK   10  A    between atoms: _32  and  _33
REMARK   11  A    between atoms: _35  and  _37
REMARK   12  A    between atoms: _37  and  _38
REMARK   13  A    between atoms: _37  and  _40
REMARK   14  A    between atoms: _40  and  _41
REMARK   15  A    between atoms: _46  and  _47
REMARK   16  A    between atoms: _49  and  _51
REMARK   17  A    between atoms: _51  and  _52
REMARK   18  A    between atoms: _54  and  _56
REMARK   19  A    between atoms: _56  and  _57
REMARK   20  A    between atoms: _56  and  _59
REMARK   21  A    between atoms: _59  and  _60
REMARK   22  A    between atoms: _60  and  _61
REMARK   23  A    between atoms: _61  and  _62
REMARK   24  A    between atoms: _62  and  _63
REMARK   25  A    between atoms: _67  and  _69
REMARK   26  A    between atoms: _69  and  _70
REMARK   27  A    between atoms: _69  and  _72
REMARK   28  A    between atoms: _72  and  _73
REMARK   29  A    between atoms: _78  and  _80
REMARK   30  A    between atoms: _80  and  _81
REMARK   31  A    between atoms: _80  and  _83
REMARK   32  A    between atoms: _83  and  _84
REMARK   33  A    between atoms: _89  and  _91
REMARK   34  A    between atoms: _91  and  _92
REMARK   35  A    between atoms: _95  and  _96
REMARK   36  A    between atoms: _101  and  _103
REMARK   37  A    between atoms: _103  and  _104
REMARK   38  A    between atoms: _103  and  _106
REMARK   39  A    between atoms: _106  and  _107
REMARK   40  A    between atoms: _117  and  _119
REMARK   41  A    between atoms: _119  and  _120
REMARK   42  A    between atoms: _119  and  _122
REMARK   43  A    between atoms: _122  and  _123
REMARK   44  A    between atoms: _128  and  _130
REMARK   45  A    between atoms: _130  and  _131
REMARK   46  A    between atoms: _133  and  _135
REMARK   47  A    between atoms: _135  and  _136
REMARK   48  A    between atoms: _135  and  _138
REMARK   49  A    between atoms: _138  and  _139
REMARK   50  A    between atoms: _144  and  _146
REMARK   51  A    between atoms: _146  and  _147
REMARK   52  A    between atoms: _146  and  _149
REMARK   53  A    between atoms: _149  and  _150
REMARK   54  A    between atoms: _150  and  _151
REMARK   55  A    between atoms: _151  and  _152
REMARK   56  A    between atoms: _152  and  _153
REMARK   57  A    between atoms: _157  and  _159
REMARK   58  A    between atoms: _159  and  _160
REMARK   59  A    between atoms: _159  and  _162
REMARK   60  A    between atoms: _162  and  _163
REMARK   61  A    between atoms: _168  and  _170
REMARK   62  A    between atoms: _170  and  _171
REMARK   63  A    between atoms: _170  and  _173
REMARK   64  A    between atoms: _173  and  _174
REMARK   65  A    between atoms: _180  and  _182
REMARK   66  A    between atoms: _182  and  _183
REMARK   67  A    between atoms: _182  and  _185
REMARK   68  A    between atoms: _185  and  _186
REMARK   69  A    between atoms: _191  and  _193
REMARK   70  A    between atoms: _193  and  _194
REMARK   71  A    between atoms: _196  and  _198
REMARK   72  A    between atoms: _198  and  _199
REMARK   73  A    between atoms: _198  and  _201
REMARK   74  A    between atoms: _201  and  _202
REMARK   75  A    between atoms: _202  and  _203
REMARK   76  A    between atoms: _206  and  _208
REMARK   77  A    between atoms: _208  and  _209
REMARK   78  A    between atoms: _208  and  _211
REMARK   79  A    between atoms: _211  and  _212
REMARK   80  A    between atoms: _212  and  _213
REMARK   81  A    between atoms: _217  and  _218
REMARK   82  A    between atoms: _223  and  _225
REMARK   83  A    between atoms: _225  and  _226
REMARK   84  A    between atoms: _225  and  _228
REMARK   85  A    between atoms: _228  and  _229
REMARK   86  A    between atoms: _229  and  _230
REMARK   87  A    between atoms: _233  and  _235
REMARK   88  A    between atoms: _235  and  _236
REMARK   89  A    between atoms: _235  and  _238
REMARK   90  A    between atoms: _238  and  _239
REMARK   91  A    between atoms: _239  and  _240
REMARK   92  A    between atoms: _243  and  _245
REMARK   93  A    between atoms: _245  and  _246
REMARK   94  A    between atoms: _245  and  _248
REMARK   95  A    between atoms: _248  and  _249
REMARK   96  A    between atoms: _252  and  _254
REMARK   97  A    between atoms: _254  and  _255
REMARK   98  A    between atoms: _254  and  _257
REMARK   99  A    between atoms: _257  and  _258
REMARK  100  A    between atoms: _258  and  _259
REMARK  101  A    between atoms: _261  and  _263
REMARK  102  A    between atoms: _263  and  _264
REMARK  103  A    between atoms: _263  and  _266
REMARK  104  A    between atoms: _269  and  _271
REMARK  105  A    between atoms: _271  and  _272
REMARK  106  A    between atoms: _271  and  _274
REMARK  107  A    between atoms: _274  and  _275
REMARK  108  A    between atoms: _278  and  _280
REMARK  109  A    between atoms: _280  and  _281
REMARK  110  A    between atoms: _280  and  _283
REMARK  111  A    between atoms: _283  and  _284
REMARK                            x       y       z     vdW  Elec       q    Type
REMARK                         _______ _______ _______ _____ _____    ______ ____
ROOT
ATOM      1  CG  LYS A   1       1.530  -0.255   1.182  0.00  0.00    -0.000 C 
ENDROOT
BRANCH   1   2
ATOM      2  CB  LYS A   1       1.116  -1.431   0.302  0.00  0.00    +0.025 C 
BRANCH   2   3
ATOM      3  CA  LYS A   1      -0.304  -1.321  -0.267  0.00  0.00    +0.133 C 
BRANCH   3   4
ATOM      4  N   LYS A   1      -0.619  -2.525  -1.008  0.00  0.00    -0.239 NA
ATOM      5  H   LYS A   1       0.036  -3.330  -0.943  0.00  0.00    +0.142 HD
ENDBRANCH   3   4
BRANCH   3   6
ATOM      6  C   LYS A   1      -0.391  -0.063  -1.136  0.00  0.00    +0.224 C 
ATOM      7  O   LYS A   1       0.210  -0.013  -2.204  0.00  0.00    -0.287 OA
ENDBRANCH   3   6
ENDBRANCH   2   3
ENDBRANCH   1   2
BRANCH   1   8
ATOM      8  CD  LYS A   1       2.914  -0.529   1.775  0.00  0.00    -0.024 C 
BRANCH   8   9
ATOM      9  CE  LYS A   1       3.278   0.476   2.858  0.00  0.00    -0.086 C 
BRANCH   9  10
ATOM     10  NZ  LYS A   1       4.390  -0.069   3.730  0.00  0.00    +0.380 N 
ATOM     11  HZ1 LYS A   1       4.627   0.629   4.464  0.00  0.00    -0.089 HD
ATOM     12  HZ2 LYS A   1       4.075  -0.953   4.179  0.00  0.00    -0.089 HD
ATOM     13  HZ3 LYS A   1       5.229  -0.256   3.144  0.00  0.00    -0.089 HD
ENDBRANCH   9  10
ENDBRANCH   8   9
ENDBRANCH   1   8
TORSDOF 7
REMARK  Name = ../refined-set-2016/4qy3/4qy3_pocket.pdb
REMARK  111 active torsions:
REMARK  status: ('A' for Active; 'I' for Inactive)
REMARK    1  A    between atoms: _1  and  _5
REMARK    2  A    between atoms: _5  and  _6
REMARK    3  A    between atoms: _5  and  _8
REMARK    4  A    between atoms: _8  and  _9
REMARK    5  A    between atoms: _14  and  _16
REMARK    6  A    between atoms: _16  and  _17
REMARK    7  A    between atoms: _16  and  _19
REMARK    8  A    between atoms: _19  and  _20
REMARK    9  A    between atoms: _30  and  _32
REMARK   10  A    between atoms: _32  and  _33
REMARK   11  A    between atoms: _35  and  _37
REMARK   12  A    between atoms: _37  and  _38
REMARK   13  A    between atoms: _37  and  _40
REMARK   14  A    between atoms: _40  and  _41
REMARK   15  A    between atoms: _46  and  _47
REMARK   16  A    between atoms: _49  and  _51
REMARK   17  A    between atoms: _51  and  _52
REMARK   18  A    between atoms: _54  and  _56
REMARK   19  A    between atoms: _56  and  _57
REMARK   20  A    between atoms: _56  and  _59
REMARK   21  A    between atoms: _59  and  _60
REMARK   22  A    between atoms: _60  and  _61
REMARK   23  A    between atoms: _61  and  _62
REMARK   24  A    between atoms: _62  and  _63
REMARK   25  A    between atoms: _67  and  _69
REMARK   26  A    between atoms: _69  and  _70
REMARK   27  A    between atoms: _69  and  _72
REMARK   28  A    between atoms: _72  and  _73
REMARK   29  A    between atoms: _78  and  _80
REMARK   30  A    between atoms: _80  and  _81
REMARK   31  A    between atoms: _80  and  _83
REMARK   32  A    between atoms: _83  and  _84
REMARK   33  A    between atoms: _89  and  _91
REMARK   34  A    between atoms: _91  and  _92
REMARK   35  A    between atoms: _95  and  _96
REMARK   36  A    between atoms: _101  and  _103
REMARK   37  A    between atoms: _103  and  _104
REMARK   38  A    between atoms: _103  and  _106
REMARK   39  A    between atoms: _106  and  _107
REMARK   40  A    between atoms: _117  and  _119
REMARK   41  A    between atoms: _119  and  _120
REMARK   42  A    between atoms: _119  and  _122
REMARK   43  A    between atoms: _122  and  _123
REMARK   44  A    between atoms: _128  and  _130
REMARK   45  A    between atoms: _130  and  _131
REMARK   46  A    between atoms: _133  and  _135
REMARK   47  A    between atoms: _135  and  _136
REMARK   48  A    between atoms: _135  and  _138
REMARK   49  A    between atoms: _138  and  _139
REMARK   50  A    between atoms: _144  and  _146
REMARK   51  A    between atoms: _146  and  _147
REMARK   52  A    between atoms: _146  and  _149
REMARK   53  A    between atoms: _149  and  _150
REMARK   54  A    between atoms: _150  and  _151
REMARK   55  A    between atoms: _151  and  _152
REMARK   56  A    between atoms: _152  and  _153
REMARK   57  A    between atoms: _157  and  _159
REMARK   58  A    between atoms: _159  and  _160
REMARK   59  A    between atoms: _159  and  _162
REMARK   60  A    between atoms: _162  and  _163
REMARK   61  A    between atoms: _168  and  _170
REMARK   62  A    between atoms: _170  and  _171
REMARK   63  A    between atoms: _170  and  _173
REMARK   64  A    between atoms: _173  and  _174
REMARK   65  A    between atoms: _180  and  _182
REMARK   66  A    between atoms: _182  and  _183
REMARK   67  A    between atoms: _182  and  _185
REMARK   68  A    between atoms: _185  and  _186
REMARK   69  A    between atoms: _191  and  _193
REMARK   70  A    between atoms: _193  and  _194
REMARK   71  A    between atoms: _196  and  _198
REMARK   72  A    between atoms: _198  and  _199
REMARK   73  A    between atoms: _198  and  _201
REMARK   74  A    between atoms: _201  and  _202
REMARK   75  A    between atoms: _202  and  _203
REMARK   76  A    between atoms: _206  and  _208
REMARK   77  A    between atoms: _208  and  _209
REMARK   78  A    between atoms: _208  and  _211
REMARK   79  A    between atoms: _211  and  _212
REMARK   80  A    between atoms: _212  and  _213
REMARK   81  A    between atoms: _217  and  _218
REMARK   82  A    between atoms: _223  and  _225
REMARK   83  A    between atoms: _225  and  _226
REMARK   84  A    between atoms: _225  and  _228
REMARK   85  A    between atoms: _228  and  _229
REMARK   86  A    between atoms: _229  and  _230
REMARK   87  A    between atoms: _233  and  _235
REMARK   88  A    between atoms: _235  and  _236
REMARK   89  A    between atoms: _235  and  _238
REMARK   90  A    between atoms: _238  and  _239
REMARK   91  A    between atoms: _239  and  _240
REMARK   92  A    between atoms: _243  and  _245
REMARK   93  A    between atoms: _245  and  _246
REMARK   94  A    between atoms: _245  and  _248
REMARK   95  A    between atoms: _248  and  _249
REMARK   96  A    between atoms: _252  and  _254
REMARK   97  A    between atoms: _254  and  _255
REMARK   98  A    between atoms: _254  and  _257
REMARK   99  A    between atoms: _257  and  _258
REMARK  100  A    between atoms: _258  and  _259
REMARK  101  A    between atoms: _261  and  _263
REMARK  102  A    between atoms: _263  and  _264
REMARK  103  A    between atoms: _263  and  _266
REMARK  104  A    between atoms: _269  and  _271
REMARK  105  A    between atoms: _271  and  _272
REMARK  106  A    between atoms: _271  and  _274
REMARK  107  A    between atoms: _274  and  _275
REMARK  108  A    between atoms: _278  and  _280
REMARK  109  A    between atoms: _280  and  _281
REMARK  110  A    between atoms: _280  and  _283
REMARK  111  A    between atoms: _283  and  _284
REMARK                            x       y       z     vdW  Elec       q    Type
REMARK                         _______ _______ _______ _____ _____    ______ ____
ROOT
ATOM      1  C   PHE A   2       2.013  -5.362   1.840  0.00  0.00    +0.241 C 
ATOM      2  O   PHE A   2       2.230  -4.170   2.064  0.00  0.00    -0.273 OA
ATOM      3  N   ASN A   3       2.502  -6.015   0.792  0.00  0.00    -0.297 N 
ATOM      4  H   ASN A   3       2.262  -7.021   0.685  0.00  0.00    +0.150 HD
ENDROOT
BRANCH   3   5
ATOM      5  CA  ASN A   3       3.357  -5.401  -0.217  0.00  0.00    +0.158 C 
BRANCH   5   6
ATOM      6  C   ASN A   3       2.607  -4.523  -1.203  0.00  0.00    +0.241 C 
ATOM      7  O   ASN A   3       1.383  -4.610  -1.345  0.00  0.00    -0.273 OA
ATOM      8  N   GLY A   4       3.379  -3.700  -1.912  0.00  0.00    -0.295 N 
ATOM      9  H   GLY A   4       4.402  -3.669  -1.729  0.00  0.00    +0.150 HD
BRANCH   8  10
ATOM     10  CA  GLY A   4       2.809  -2.849  -2.934  0.00  0.00    +0.176 C 
BRANCH  10  11
ATOM     11  C   GLY A   4       2.770  -3.620  -4.253  0.00  0.00    +0.243 C 
ATOM     12  O   GLY A   4       3.354  -4.704  -4.383  0.00  0.00    -0.273 OA
ATOM     13  N   GLU A   5       2.083  -3.057  -5.235  0.00  0.00    -0.298 N 
ATOM     14  H   GLU A   5       1.615  -2.145  -5.062  0.00  0.00    +0.150 HD
BRANCH  13  15
ATOM     15  CA  GLU A   5       1.960  -3.673  -6.552  0.00  0.00    +0.137 C 
BRANCH  15  16
ATOM     16  C   GLU A   5       3.361  -3.848  -7.169  0.00  0.00    +0.227 C 
ATOM     17  O   GLU A   5       4.231  -2.990  -7.014  0.00  0.00    -0.286 OA
ENDBRANCH  15  16
BRANCH  15  18
ATOM     18  CB  GLU A   5       1.091  -2.766  -7.426  0.00  0.00    +0.039 C 
BRANCH  18  19
ATOM     19  CG  GLU A   5       0.958  -3.173  -8.880  0.00  0.00    +0.116 C 
BRANCH  19  20
ATOM     20  CD  GLU A   5       0.114  -2.192  -9.669  0.00  0.00    +0.365 C 
ATOM     21  OE2 GLU A   5      -0.083  -1.039  -9.197  0.00  0.00    -0.246 OA
ATOM     22  OE1 GLU A   5      -0.350  -2.574 -10.770  0.00  0.00    -0.246 OA
ENDBRANCH  19  20
ENDBRANCH  18  19
ENDBRANCH  15  18
ENDBRANCH  13  15
ENDBRANCH  10  11
ENDBRANCH   8  10
ENDBRANCH   5   6
BRANCH   5  23
ATOM     23  CB  ASN A   3       4.040  -6.488  -1.040  0.00  0.00    +0.114 C 
BRANCH  23  24
ATOM     24  CG  ASN A   3       3.032  -7.474  -1.613  0.00  0.00    +0.222 C 
ATOM     25  OD1 ASN A   3       2.518  -8.306  -0.888  0.00  0.00    -0.275 OA
ATOM     26  ND2 ASN A   3       2.725  -7.367  -2.921  0.00  0.00    -0.329 N 
ATOM     27 HD21 ASN A   3       2.026  -8.009  -3.345  0.00  0.00    +0.145 HD
ATOM     28 HD22 ASN A   3       3.187  -6.642  -3.506  0.00  0.00    +0.145 HD
ENDBRANCH  23  24
ENDBRANCH   5  23
ENDBRANCH   3   5
BRANCH   1  29
ATOM     29  CA  PHE A   2       1.170  -6.214   2.815  0.00  0.00    +0.153 C 
BRANCH  29  31
ATOM     30  C   ASN A   1      -0.608  -6.981   1.343  0.00  0.00    +0.239 C 
ATOM     31  N   PHE A   2       0.503  -7.254   2.037  0.00  0.00    -0.297 N 
ATOM     32  H   PHE A   2       0.895  -8.217   2.022  0.00  0.00    +0.150 HD
ATOM     33  O   ASN A   1      -1.153  -5.874   1.370  0.00  0.00    -0.274 OA
BRANCH  30  34
ATOM     34  CA  ASN A   1      -1.166  -8.095   0.459  0.00  0.00    +0.154 C 
BRANCH  34  35
ATOM     35  N   ASN A   1      -2.627  -8.085   0.432  0.00  0.00    -0.238 NA
ATOM     36  H   ASN A   1      -3.113  -7.230   0.095  0.00  0.00    +0.142 HD
ENDBRANCH  34  35
BRANCH  34  37
ATOM     37  CB  ASN A   1      -0.589  -7.828  -0.947  0.00  0.00    +0.111 C 
BRANCH  37  38
ATOM     38  CG  ASN A   1      -0.682  -9.009  -1.915  0.00  0.00    +0.221 C 
ATOM     39  ND2 ASN A   1      -1.359 -10.085  -1.538  0.00  0.00    -0.329 N 
ATOM     40 HD21 ASN A   1      -1.802 -10.117  -0.598  0.00  0.00    +0.145 HD
ATOM     41 HD22 ASN A   1      -1.447 -10.896  -2.183  0.00  0.00    +0.145 HD
ATOM     42  OD1 ASN A   1      -0.133  -8.915  -3.024  0.00  0.00    -0.275 OA
ENDBRANCH  37  38
ENDBRANCH  34  37
ENDBRANCH  30  34
ENDBRANCH  29  31
BRANCH  29  43
ATOM     43  CB  PHE A   2       2.148  -6.801   3.817  0.00  0.00    +0.055 C 
BRANCH  43  44
ATOM     44  CG  PHE A   2       1.525  -7.356   5.078  0.00  0.00    -0.020 A 
ATOM     45  CD2 PHE A   2       0.766  -6.557   5.924  0.00  0.00    -0.004 A 
ATOM     46  CE2 PHE A   2       0.323  -7.038   7.162  0.00  0.00    -0.000 A 
ATOM     47  CZ  PHE A   2       0.639  -8.355   7.563  0.00  0.00    -0.000 A 
ATOM     48  CE1 PHE A   2       1.389  -9.162   6.720  0.00  0.00    -0.000 A 
ATOM     49  CD1 PHE A   2       1.825  -8.659   5.476  0.00  0.00    -0.004 A 
ENDBRANCH  43  44
ENDBRANCH  29  43
ENDBRANCH   1  29
TORSDOF 19
REMARK  Name = ../refined-set-2016/4qy3/4qy3_pocket.pdb
REMARK  111 active torsions:
REMARK  status: ('A' for Active; 'I' for Inactive)
REMARK    1  A    between atoms: _1  and  _5
REMARK    2  A    between atoms: _5  and  _6
REMARK    3  A    between atoms: _5  and  _8
REMARK    4  A    between atoms: _8  and  _9
REMARK    5  A    between atoms: _14  and  _16
REMARK    6  A    between atoms: _16  and  _17
REMARK    7  A    between atoms: _16  and  _19
REMARK    8  A    between atoms: _19  and  _20
REMARK    9  A    between atoms: _30  and  _32
REMARK   10  A    between atoms: _32  and  _33
REMARK   11  A    between atoms: _35  and  _37
REMARK   12  A    between atoms: _37  and  _38
REMARK   13  A    between atoms: _37  and  _40
REMARK   14  A    between atoms: _40  and  _41
REMARK   15  A    between atoms: _46  and  _47
REMARK   16  A    between atoms: _49  and  _51
REMARK   17  A    between atoms: _51  and  _52
REMARK   18  A    between atoms: _54  and  _56
REMARK   19  A    between atoms: _56  and  _57
REMARK   20  A    between atoms: _56  and  _59
REMARK   21  A    between atoms: _59  and  _60
REMARK   22  A    between atoms: _60  and  _61
REMARK   23  A    between atoms: _61  and  _62
REMARK   24  A    between atoms: _62  and  _63
REMARK   25  A    between atoms: _67  and  _69
REMARK   26  A    between atoms: _69  and  _70
REMARK   27  A    between atoms: _69  and  _72
REMARK   28  A    between atoms: _72  and  _73
REMARK   29  A    between atoms: _78  and  _80
REMARK   30  A    between atoms: _80  and  _81
REMARK   31  A    between atoms: _80  and  _83
REMARK   32  A    between atoms: _83  and  _84
REMARK   33  A    between atoms: _89  and  _91
REMARK   34  A    between atoms: _91  and  _92
REMARK   35  A    between atoms: _95  and  _96
REMARK   36  A    between atoms: _101  and  _103
REMARK   37  A    between atoms: _103  and  _104
REMARK   38  A    between atoms: _103  and  _106
REMARK   39  A    between atoms: _106  and  _107
REMARK   40  A    between atoms: _117  and  _119
REMARK   41  A    between atoms: _119  and  _120
REMARK   42  A    between atoms: _119  and  _122
REMARK   43  A    between atoms: _122  and  _123
REMARK   44  A    between atoms: _128  and  _130
REMARK   45  A    between atoms: _130  and  _131
REMARK   46  A    between atoms: _133  and  _135
REMARK   47  A    between atoms: _135  and  _136
REMARK   48  A    between atoms: _135  and  _138
REMARK   49  A    between atoms: _138  and  _139
REMARK   50  A    between atoms: _144  and  _146
REMARK   51  A    between atoms: _146  and  _147
REMARK   52  A    between atoms: _146  and  _149
REMARK   53  A    between atoms: _149  and  _150
REMARK   54  A    between atoms: _150  and  _151
REMARK   55  A    between atoms: _151  and  _152
REMARK   56  A    between atoms: _152  and  _153
REMARK   57  A    between atoms: _157  and  _159
REMARK   58  A    between atoms: _159  and  _160
REMARK   59  A    between atoms: _159  and  _162
REMARK   60  A    between atoms: _162  and  _163
REMARK   61  A    between atoms: _168  and  _170
REMARK   62  A    between atoms: _170  and  _171
REMARK   63  A    between atoms: _170  and  _173
REMARK   64  A    between atoms: _173  and  _174
REMARK   65  A    between atoms: _180  and  _182
REMARK   66  A    between atoms: _182  and  _183
REMARK   67  A    between atoms: _182  and  _185
REMARK   68  A    between atoms: _185  and  _186
REMARK   69  A    between atoms: _191  and  _193
REMARK   70  A    between atoms: _193  and  _194
REMARK   71  A    between atoms: _196  and  _198
REMARK   72  A    between atoms: _198  and  _199
REMARK   73  A    between atoms: _198  and  _201
REMARK   74  A    between atoms: _201  and  _202
REMARK   75  A    between atoms: _202  and  _203
REMARK   76  A    between atoms: _206  and  _208
REMARK   77  A    between atoms: _208  and  _209
REMARK   78  A    between atoms: _208  and  _211
REMARK   79  A    between atoms: _211  and  _212
REMARK   80  A    between atoms: _212  and  _213
REMARK   81  A    between atoms: _217  and  _218
REMARK   82  A    between atoms: _223  and  _225
REMARK   83  A    between atoms: _225  and  _226
REMARK   84  A    between atoms: _225  and  _228
REMARK   85  A    between atoms: _228  and  _229
REMARK   86  A    between atoms: _229  and  _230
REMARK   87  A    between atoms: _233  and  _235
REMARK   88  A    between atoms: _235  and  _236
REMARK   89  A    between atoms: _235  and  _238
REMARK   90  A    between atoms: _238  and  _239
REMARK   91  A    between atoms: _239  and  _240
REMARK   92  A    between atoms: _243  and  _245
REMARK   93  A    between atoms: _245  and  _246
REMARK   94  A    between atoms: _245  and  _248
REMARK   95  A    between atoms: _248  and  _249
REMARK   96  A    between atoms: _252  and  _254
REMARK   97  A    between atoms: _254  and  _255
REMARK   98  A    between atoms: _254  and  _257
REMARK   99  A    between atoms: _257  and  _258
REMARK  100  A    between atoms: _258  and  _259
REMARK  101  A    between atoms: _261  and  _263
REMARK  102  A    between atoms: _263  and  _264
REMARK  103  A    between atoms: _263  and  _266
REMARK  104  A    between atoms: _269  and  _271
REMARK  105  A    between atoms: _271  and  _272
REMARK  106  A    between atoms: _271  and  _274
REMARK  107  A    between atoms: _274  and  _275
REMARK  108  A    between atoms: _278  and  _280
REMARK  109  A    between atoms: _280  and  _281
REMARK  110  A    between atoms: _280  and  _283
REMARK  111  A    between atoms: _283  and  _284
REMARK                            x       y       z     vdW  Elec       q    Type
REMARK                         _______ _______ _______ _____ _____    ______ ____
ROOT
ATOM      1  CA  LEU A   5      -0.133 -12.133   2.321  0.00  0.00    +0.149 C 
ENDROOT
BRANCH   1   2
ATOM      2  C   LEU A   5      -0.333 -11.332   3.606  0.00  0.00    +0.241 C 
ATOM      3  O   LEU A   5       0.436 -11.475   4.568  0.00  0.00    -0.273 OA
ATOM      4  N   MET A   6      -1.377 -10.496   3.610  0.00  0.00    -0.297 N 
ATOM      5  H   MET A   6      -1.958 -10.408   2.752  0.00  0.00    +0.150 HD
BRANCH   4   6
ATOM      6  CA  MET A   6      -1.722  -9.704   4.786  0.00  0.00    +0.149 C 
BRANCH   6   7
ATOM      7  C   MET A   6      -2.511 -10.614   5.747  0.00  0.00    +0.241 C 
ATOM      8  N   VAL A   7      -1.773 -11.247   6.651  0.00  0.00    -0.297 N 
ATOM      9  H   VAL A   7      -0.741 -11.125   6.617  0.00  0.00    +0.150 HD
ATOM     10  O   MET A   6      -3.727 -10.772   5.613  0.00  0.00    -0.273 OA
BRANCH   8  11
ATOM     11  CA  VAL A   7      -2.336 -12.109   7.694  0.00  0.00    +0.149 C 
BRANCH  11  12
ATOM     12  C   VAL A   7      -1.541 -11.860   8.967  0.00  0.00    +0.241 C 
ATOM     13  N   ASP A   8      -2.165 -12.188  10.086  0.00  0.00    -0.297 N 
ATOM     14  H   ASP A   8      -3.130 -12.571  10.027  0.00  0.00    +0.150 HD
ATOM     15  O   VAL A   7      -0.408 -11.376   8.922  0.00  0.00    -0.273 OA
BRANCH  13  16
ATOM     16  CA  ASP A   8      -1.557 -12.034  11.389  0.00  0.00    +0.160 C 
BRANCH  16  17
ATOM     17  C   ASP A   8      -1.055 -10.621  11.656  0.00  0.00    +0.241 C 
ATOM     18  O   ASP A   8       0.063 -10.394  12.145  0.00  0.00    -0.273 OA
ATOM     19  N   ASN A   9      -1.915  -9.657  11.338  0.00  0.00    -0.298 N 
ATOM     20  H   ASN A   9      -2.834  -9.900  10.915  0.00  0.00    +0.150 HD
BRANCH  19  21
ATOM     21  CA  ASN A   9      -1.570  -8.249  11.583  0.00  0.00    +0.146 C 
BRANCH  21  22
ATOM     22  C   ASN A   9      -2.141  -7.784  12.921  0.00  0.00    +0.227 C 
ATOM     23  O   ASN A   9      -2.821  -6.747  13.024  0.00  0.00    -0.286 OA
ENDBRANCH  21  22
BRANCH  21  24
ATOM     24  CB  ASN A   9      -2.085  -7.388  10.422  0.00  0.00    +0.112 C 
BRANCH  24  25
ATOM     25  CG  ASN A   9      -3.581  -7.531  10.188  0.00  0.00    +0.222 C 
ATOM     26  OD1 ASN A   9      -4.237  -8.363  10.785  0.00  0.00    -0.275 OA
ATOM     27  ND2 ASN A   9      -4.120  -6.692   9.291  0.00  0.00    -0.329 N 
ATOM     28 HD21 ASN A   9      -5.138  -6.738   9.082  0.00  0.00    +0.145 HD
ATOM     29 HD22 ASN A   9      -3.520  -5.996   8.804  0.00  0.00    +0.145 HD
ENDBRANCH  24  25
ENDBRANCH  21  24
ENDBRANCH  19  21
ENDBRANCH  16  17
BRANCH  16  30
ATOM     30  CB  ASP A   8      -0.460 -13.082  11.572  0.00  0.00    +0.143 C 
BRANCH  30  31
ATOM     31  CG  ASP A   8      -1.037 -14.490  11.662  0.00  0.00    +0.367 C 
ATOM     32  OD2 ASP A   8      -2.049 -14.662  12.364  0.00  0.00    -0.246 OA
ATOM     33  OD1 ASP A   8      -0.470 -15.416  11.049  0.00  0.00    -0.246 OA
ENDBRANCH  30  31
ENDBRANCH  16  30
ENDBRANCH  13  16
ENDBRANCH  11  12
BRANCH  11  34
ATOM     34  CB  VAL A   7      -2.265 -13.634   7.361  0.00  0.00    +0.027 C 
ATOM     35  CG2 VAL A   7      -0.825 -14.057   7.107  0.00  0.00    +0.002 C 
ATOM     36  CG1 VAL A   7      -3.171 -13.948   6.147  0.00  0.00    +0.002 C 
ENDBRANCH  11  34
ENDBRANCH   8  11
ENDBRANCH   6   7
BRANCH   6  37
ATOM     37  CB  MET A   6      -2.597  -8.499   4.381  0.00  0.00    +0.041 C 
BRANCH  37  38
ATOM     38  CG  MET A   6      -2.906  -7.543   5.547  0.00  0.00    +0.060 C 
BRANCH  38  39
ATOM     39  SD  MET A   6      -3.859  -6.108   5.033  0.00  0.00    -0.139 S 
ATOM     40  CE  MET A   6      -2.503  -5.066   4.346  0.00  0.00    +0.069 C 
ENDBRANCH  38  39
ENDBRANCH  37  38
ENDBRANCH   6  37
ENDBRANCH   4   6
ENDBRANCH   1   2
BRANCH   1  42
ATOM     41  C   GLU A   4       1.964 -11.150   1.698  0.00  0.00    +0.241 C 
ATOM     42  N   LEU A   5       1.267 -12.253   1.946  0.00  0.00    -0.297 N 
ATOM     43  H   LEU A   5       1.716 -13.188   1.873  0.00  0.00    +0.150 HD
ATOM     44  O   GLU A   4       1.477 -10.017   1.785  0.00  0.00    -0.273 OA
BRANCH  41  45
ATOM     45  CA  GLU A   4       3.392 -11.333   1.230  0.00  0.00    +0.149 C 
BRANCH  45  47
ATOM     46  C   GLU A   3       3.791 -11.690  -1.141  0.00  0.00    +0.241 C 
ATOM     47  N   GLU A   4       3.314 -10.923  -0.162  0.00  0.00    -0.297 N 
ATOM     48  H   GLU A   4       2.876 -10.010  -0.399  0.00  0.00    +0.150 HD
ATOM     49  O   GLU A   3       4.363 -12.764  -0.934  0.00  0.00    -0.273 OA
BRANCH  46  50
ATOM     50  CA  GLU A   3       3.589 -11.151  -2.551  0.00  0.00    +0.149 C 
BRANCH  50  53
ATOM     51  C   PRO A   2       5.652 -10.018  -3.094  0.00  0.00    +0.241 C 
ATOM     52  O   PRO A   2       5.545  -9.233  -2.162  0.00  0.00    -0.273 OA
ATOM     53  N   GLU A   3       4.788 -10.985  -3.339  0.00  0.00    -0.297 N 
ATOM     54  H   GLU A   3       4.975 -11.645  -4.120  0.00  0.00    +0.150 HD
BRANCH  51  60
ATOM     55  C   GLU A   1       6.257  -7.798  -4.992  0.00  0.00    +0.241 C 
ATOM     56  N   PRO A   2       7.171  -8.559  -4.374  0.00  0.00    -0.272 N 
ATOM     57  CD  PRO A   2       8.563  -8.242  -4.009  0.00  0.00    +0.094 C 
ATOM     58  CG  PRO A   2       9.206  -9.607  -4.071  0.00  0.00    +0.024 C 
ATOM     59  CB  PRO A   2       8.138 -10.462  -3.408  0.00  0.00    +0.031 C 
ATOM     60  CA  PRO A   2       6.849  -9.948  -4.044  0.00  0.00    +0.152 C 
ATOM     61  O   GLU A   1       5.146  -8.231  -5.299  0.00  0.00    -0.273 OA
BRANCH  55  62
ATOM     62  CA  GLU A   1       6.643  -6.362  -5.317  0.00  0.00    +0.146 C 
BRANCH  62  63
ATOM     63  N   GLU A   1       5.648  -5.886  -6.279  0.00  0.00    -0.238 NA
ATOM     64  H   GLU A   1       4.671  -5.722  -5.963  0.00  0.00    +0.142 HD
ENDBRANCH  62  63
BRANCH  62  65
ATOM     65  CB  GLU A   1       6.642  -5.506  -4.043  0.00  0.00    +0.038 C 
BRANCH  65  66
ATOM     66  CG  GLU A   1       6.664  -4.001  -4.305  0.00  0.00    +0.116 C 
BRANCH  66  67
ATOM     67  CD  GLU A   1       6.823  -3.161  -3.039  0.00  0.00    +0.365 C 
ATOM     68  OE2 GLU A   1       6.117  -3.409  -2.035  0.00  0.00    -0.246 OA
ATOM     69  OE1 GLU A   1       7.660  -2.231  -3.054  0.00  0.00    -0.246 OA
ENDBRANCH  66  67
ENDBRANCH  65  66
ENDBRANCH  62  65
ENDBRANCH  55  62
ENDBRANCH  51  60
ENDBRANCH  50  53
BRANCH  50  70
ATOM     70  CB  GLU A   3       2.619 -12.041  -3.309  0.00  0.00    +0.041 C 
BRANCH  70  71
ATOM     71  CG  GLU A   3       1.295 -12.231  -2.601  0.00  0.00    +0.116 C 
BRANCH  71  72
ATOM     72  CD  GLU A   3       0.192 -12.624  -3.559  0.00  0.00    +0.365 C 
ATOM     73  OE2 GLU A   3      -0.983 -12.332  -3.256  0.00  0.00    -0.246 OA
ATOM     74  OE1 GLU A   3       0.509 -13.239  -4.616  0.00  0.00    -0.246 OA
ENDBRANCH  71  72
ENDBRANCH  70  71
ENDBRANCH  50  70
ENDBRANCH  46  50
ENDBRANCH  45  47
BRANCH  45  75
ATOM     75  CB  GLU A   4       4.323 -10.432   2.019  0.00  0.00    +0.041 C 
BRANCH  75  76
ATOM     76  CG  GLU A   4       4.422 -10.878   3.458  0.00  0.00    +0.116 C 
BRANCH  76  77
ATOM     77  CD  GLU A   4       5.216 -12.171   3.599  0.00  0.00    +0.365 C 
ATOM     78  OE2 GLU A   4       4.679 -13.164   4.149  0.00  0.00    -0.246 OA
ATOM     79  OE1 GLU A   4       6.388 -12.173   3.145  0.00  0.00    -0.246 OA
ENDBRANCH  76  77
ENDBRANCH  75  76
ENDBRANCH  45  75
ENDBRANCH  41  45
ENDBRANCH   1  42
BRANCH   1  80
ATOM     80  CB  LEU A   5      -0.754 -13.520   2.504  0.00  0.00    +0.029 C 
BRANCH  80  81
ATOM     81  CG  LEU A   5      -0.805 -14.375   1.233  0.00  0.00    +0.002 C 
ATOM     82  CD2 LEU A   5      -1.401 -15.751   1.600  0.00  0.00    +0.000 C 
ATOM     83  CD1 LEU A   5      -1.667 -13.691   0.187  0.00  0.00    +0.000 C 
ENDBRANCH  80  81
ENDBRANCH   1  80
TORSDOF 36
REMARK  Name = ../refined-set-2016/4qy3/4qy3_pocket.pdb
REMARK  111 active torsions:
REMARK  status: ('A' for Active; 'I' for Inactive)
REMARK    1  A    between atoms: _1  and  _5
REMARK    2  A    between atoms: _5  and  _6
REMARK    3  A    between atoms: _5  and  _8
REMARK    4  A    between atoms: _8  and  _9
REMARK    5  A    between atoms: _14  and  _16
REMARK    6  A    between atoms: _16  and  _17
REMARK    7  A    between atoms: _16  and  _19
REMARK    8  A    between atoms: _19  and  _20
REMARK    9  A    between atoms: _30  and  _32
REMARK   10  A    between atoms: _32  and  _33
REMARK   11  A    between atoms: _35  and  _37
REMARK   12  A    between atoms: _37  and  _38
REMARK   13  A    between atoms: _37  and  _40
REMARK   14  A    between atoms: _40  and  _41
REMARK   15  A    between atoms: _46  and  _47
REMARK   16  A    between atoms: _49  and  _51
REMARK   17  A    between atoms: _51  and  _52
REMARK   18  A    between atoms: _54  and  _56
REMARK   19  A    between atoms: _56  and  _57
REMARK   20  A    between atoms: _56  and  _59
REMARK   21  A    between atoms: _59  and  _60
REMARK   22  A    between atoms: _60  and  _61
REMARK   23  A    between atoms: _61  and  _62
REMARK   24  A    between atoms: _62  and  _63
REMARK   25  A    between atoms: _67  and  _69
REMARK   26  A    between atoms: _69  and  _70
REMARK   27  A    between atoms: _69  and  _72
REMARK   28  A    between atoms: _72  and  _73
REMARK   29  A    between atoms: _78  and  _80
REMARK   30  A    between atoms: _80  and  _81
REMARK   31  A    between atoms: _80  and  _83
REMARK   32  A    between atoms: _83  and  _84
REMARK   33  A    between atoms: _89  and  _91
REMARK   34  A    between atoms: _91  and  _92
REMARK   35  A    between atoms: _95  and  _96
REMARK   36  A    between atoms: _101  and  _103
REMARK   37  A    between atoms: _103  and  _104
REMARK   38  A    between atoms: _103  and  _106
REMARK   39  A    between atoms: _106  and  _107
REMARK   40  A    between atoms: _117  and  _119
REMARK   41  A    between atoms: _119  and  _120
REMARK   42  A    between atoms: _119  and  _122
REMARK   43  A    between atoms: _122  and  _123
REMARK   44  A    between atoms: _128  and  _130
REMARK   45  A    between atoms: _130  and  _131
REMARK   46  A    between atoms: _133  and  _135
REMARK   47  A    between atoms: _135  and  _136
REMARK   48  A    between atoms: _135  and  _138
REMARK   49  A    between atoms: _138  and  _139
REMARK   50  A    between atoms: _144  and  _146
REMARK   51  A    between atoms: _146  and  _147
REMARK   52  A    between atoms: _146  and  _149
REMARK   53  A    between atoms: _149  and  _150
REMARK   54  A    between atoms: _150  and  _151
REMARK   55  A    between atoms: _151  and  _152
REMARK   56  A    between atoms: _152  and  _153
REMARK   57  A    between atoms: _157  and  _159
REMARK   58  A    between atoms: _159  and  _160
REMARK   59  A    between atoms: _159  and  _162
REMARK   60  A    between atoms: _162  and  _163
REMARK   61  A    between atoms: _168  and  _170
REMARK   62  A    between atoms: _170  and  _171
REMARK   63  A    between atoms: _170  and  _173
REMARK   64  A    between atoms: _173  and  _174
REMARK   65  A    between atoms: _180  and  _182
REMARK   66  A    between atoms: _182  and  _183
REMARK   67  A    between atoms: _182  and  _185
REMARK   68  A    between atoms: _185  and  _186
REMARK   69  A    between atoms: _191  and  _193
REMARK   70  A    between atoms: _193  and  _194
REMARK   71  A    between atoms: _196  and  _198
REMARK   72  A    between atoms: _198  and  _199
REMARK   73  A    between atoms: _198  and  _201
REMARK   74  A    between atoms: _201  and  _202
REMARK   75  A    between atoms: _202  and  _203
REMARK   76  A    between atoms: _206  and  _208
REMARK   77  A    between atoms: _208  and  _209
REMARK   78  A    between atoms: _208  and  _211
REMARK   79  A    between atoms: _211  and  _212
REMARK   80  A    between atoms: _212  and  _213
REMARK   81  A    between atoms: _217  and  _218
REMARK   82  A    between atoms: _223  and  _225
REMARK   83  A    between atoms: _225  and  _226
REMARK   84  A    between atoms: _225  and  _228
REMARK   85  A    between atoms: _228  and  _229
REMARK   86  A    between atoms: _229  and  _230
REMARK   87  A    between atoms: _233  and  _235
REMARK   88  A    between atoms: _235  and  _236
REMARK   89  A    between atoms: _235  and  _238
REMARK   90  A    between atoms: _238  and  _239
REMARK   91  A    between atoms: _239  and  _240
REMARK   92  A    between atoms: _243  and  _245
REMARK   93  A    between atoms: _245  and  _246
REMARK   94  A    between atoms: _245  and  _248
REMARK   95  A    between atoms: _248  and  _249
REMARK   96  A    between atoms: _252  and  _254
REMARK   97  A    between atoms: _254  and  _255
REMARK   98  A    between atoms: _254  and  _257
REMARK   99  A    between atoms: _257  and  _258
REMARK  100  A    between atoms: _258  and  _259
REMARK  101  A    between atoms: _261  and  _263
REMARK  102  A    between atoms: _263  and  _264
REMARK  103  A    between atoms: _263  and  _266
REMARK  104  A    between atoms: _269  and  _271
REMARK  105  A    between atoms: _271  and  _272
REMARK  106  A    between atoms: _271  and  _274
REMARK  107  A    between atoms: _274  and  _275
REMARK  108  A    between atoms: _278  and  _280
REMARK  109  A    between atoms: _280  and  _281
REMARK  110  A    between atoms: _280  and  _283
REMARK  111  A    between atoms: _283  and  _284
REMARK                            x       y       z     vdW  Elec       q    Type
REMARK                         _______ _______ _______ _____ _____    ______ ____
ROOT
ATOM      1  O   HOH     1       2.264 -13.332   5.344  0.00  0.00    +0.000 OA
ENDROOT
TORSDOF 0
REMARK  Name = ../refined-set-2016/4qy3/4qy3_pocket.pdb
REMARK  111 active torsions:
REMARK  status: ('A' for Active; 'I' for Inactive)
REMARK    1  A    between atoms: _1  and  _5
REMARK    2  A    between atoms: _5  and  _6
REMARK    3  A    between atoms: _5  and  _8
REMARK    4  A    between atoms: _8  and  _9
REMARK    5  A    between atoms: _14  and  _16
REMARK    6  A    between atoms: _16  and  _17
REMARK    7  A    between atoms: _16  and  _19
REMARK    8  A    between atoms: _19  and  _20
REMARK    9  A    between atoms: _30  and  _32
REMARK   10  A    between atoms: _32  and  _33
REMARK   11  A    between atoms: _35  and  _37
REMARK   12  A    between atoms: _37  and  _38
REMARK   13  A    between atoms: _37  and  _40
REMARK   14  A    between atoms: _40  and  _41
REMARK   15  A    between atoms: _46  and  _47
REMARK   16  A    between atoms: _49  and  _51
REMARK   17  A    between atoms: _51  and  _52
REMARK   18  A    between atoms: _54  and  _56
REMARK   19  A    between atoms: _56  and  _57
REMARK   20  A    between atoms: _56  and  _59
REMARK   21  A    between atoms: _59  and  _60
REMARK   22  A    between atoms: _60  and  _61
REMARK   23  A    between atoms: _61  and  _62
REMARK   24  A    between atoms: _62  and  _63
REMARK   25  A    between atoms: _67  and  _69
REMARK   26  A    between atoms: _69  and  _70
REMARK   27  A    between atoms: _69  and  _72
REMARK   28  A    between atoms: _72  and  _73
REMARK   29  A    between atoms: _78  and  _80
REMARK   30  A    between atoms: _80  and  _81
REMARK   31  A    between atoms: _80  and  _83
REMARK   32  A    between atoms: _83  and  _84
REMARK   33  A    between atoms: _89  and  _91
REMARK   34  A    between atoms: _91  and  _92
REMARK   35  A    between atoms: _95  and  _96
REMARK   36  A    between atoms: _101  and  _103
REMARK   37  A    between atoms: _103  and  _104
REMARK   38  A    between atoms: _103  and  _106
REMARK   39  A    between atoms: _106  and  _107
REMARK   40  A    between atoms: _117  and  _119
REMARK   41  A    between atoms: _119  and  _120
REMARK   42  A    between atoms: _119  and  _122
REMARK   43  A    between atoms: _122  and  _123
REMARK   44  A    between atoms: _128  and  _130
REMARK   45  A    between atoms: _130  and  _131
REMARK   46  A    between atoms: _133  and  _135
REMARK   47  A    between atoms: _135  and  _136
REMARK   48  A    between atoms: _135  and  _138
REMARK   49  A    between atoms: _138  and  _139
REMARK   50  A    between atoms: _144  and  _146
REMARK   51  A    between atoms: _146  and  _147
REMARK   52  A    between atoms: _146  and  _149
REMARK   53  A    between atoms: _149  and  _150
REMARK   54  A    between atoms: _150  and  _151
REMARK   55  A    between atoms: _151  and  _152
REMARK   56  A    between atoms: _152  and  _153
REMARK   57  A    between atoms: _157  and  _159
REMARK   58  A    between atoms: _159  and  _160
REMARK   59  A    between atoms: _159  and  _162
REMARK   60  A    between atoms: _162  and  _163
REMARK   61  A    between atoms: _168  and  _170
REMARK   62  A    between atoms: _170  and  _171
REMARK   63  A    between atoms: _170  and  _173
REMARK   64  A    between atoms: _173  and  _174
REMARK   65  A    between atoms: _180  and  _182
REMARK   66  A    between atoms: _182  and  _183
REMARK   67  A    between atoms: _182  and  _185
REMARK   68  A    between atoms: _185  and  _186
REMARK   69  A    between atoms: _191  and  _193
REMARK   70  A    between atoms: _193  and  _194
REMARK   71  A    between atoms: _196  and  _198
REMARK   72  A    between atoms: _198  and  _199
REMARK   73  A    between atoms: _198  and  _201
REMARK   74  A    between atoms: _201  and  _202
REMARK   75  A    between atoms: _202  and  _203
REMARK   76  A    between atoms: _206  and  _208
REMARK   77  A    between atoms: _208  and  _209
REMARK   78  A    between atoms: _208  and  _211
REMARK   79  A    between atoms: _211  and  _212
REMARK   80  A    between atoms: _212  and  _213
REMARK   81  A    between atoms: _217  and  _218
REMARK   82  A    between atoms: _223  and  _225
REMARK   83  A    between atoms: _225  and  _226
REMARK   84  A    between atoms: _225  and  _228
REMARK   85  A    between atoms: _228  and  _229
REMARK   86  A    between atoms: _229  and  _230
REMARK   87  A    between atoms: _233  and  _235
REMARK   88  A    between atoms: _235  and  _236
REMARK   89  A    between atoms: _235  and  _238
REMARK   90  A    between atoms: _238  and  _239
REMARK   91  A    between atoms: _239  and  _240
REMARK   92  A    between atoms: _243  and  _245
REMARK   93  A    between atoms: _245  and  _246
REMARK   94  A    between atoms: _245  and  _248
REMARK   95  A    between atoms: _248  and  _249
REMARK   96  A    between atoms: _252  and  _254
REMARK   97  A    between atoms: _254  and  _255
REMARK   98  A    between atoms: _254  and  _257
REMARK   99  A    between atoms: _257  and  _258
REMARK  100  A    between atoms: _258  and  _259
REMARK  101  A    between atoms: _261  and  _263
REMARK  102  A    between atoms: _263  and  _264
REMARK  103  A    between atoms: _263  and  _266
REMARK  104  A    between atoms: _269  and  _271
REMARK  105  A    between atoms: _271  and  _272
REMARK  106  A    between atoms: _271  and  _274
REMARK  107  A    between atoms: _274  and  _275
REMARK  108  A    between atoms: _278  and  _280
REMARK  109  A    between atoms: _280  and  _281
REMARK  110  A    between atoms: _280  and  _283
REMARK  111  A    between atoms: _283  and  _284
REMARK                            x       y       z     vdW  Elec       q    Type
REMARK                         _______ _______ _______ _____ _____    ______ ____
ROOT
ATOM      1  O   HOH     1       2.333 -11.306   9.670  0.00  0.00    +0.000 OA
ENDROOT
TORSDOF 0
REMARK  Name = ../refined-set-2016/4qy3/4qy3_pocket.pdb
REMARK  111 active torsions:
REMARK  status: ('A' for Active; 'I' for Inactive)
REMARK    1  A    between atoms: _1  and  _5
REMARK    2  A    between atoms: _5  and  _6
REMARK    3  A    between atoms: _5  and  _8
REMARK    4  A    between atoms: _8  and  _9
REMARK    5  A    between atoms: _14  and  _16
REMARK    6  A    between atoms: _16  and  _17
REMARK    7  A    between atoms: _16  and  _19
REMARK    8  A    between atoms: _19  and  _20
REMARK    9  A    between atoms: _30  and  _32
REMARK   10  A    between atoms: _32  and  _33
REMARK   11  A    between atoms: _35  and  _37
REMARK   12  A    between atoms: _37  and  _38
REMARK   13  A    between atoms: _37  and  _40
REMARK   14  A    between atoms: _40  and  _41
REMARK   15  A    between atoms: _46  and  _47
REMARK   16  A    between atoms: _49  and  _51
REMARK   17  A    between atoms: _51  and  _52
REMARK   18  A    between atoms: _54  and  _56
REMARK   19  A    between atoms: _56  and  _57
REMARK   20  A    between atoms: _56  and  _59
REMARK   21  A    between atoms: _59  and  _60
REMARK   22  A    between atoms: _60  and  _61
REMARK   23  A    between atoms: _61  and  _62
REMARK   24  A    between atoms: _62  and  _63
REMARK   25  A    between atoms: _67  and  _69
REMARK   26  A    between atoms: _69  and  _70
REMARK   27  A    between atoms: _69  and  _72
REMARK   28  A    between atoms: _72  and  _73
REMARK   29  A    between atoms: _78  and  _80
REMARK   30  A    between atoms: _80  and  _81
REMARK   31  A    between atoms: _80  and  _83
REMARK   32  A    between atoms: _83  and  _84
REMARK   33  A    between atoms: _89  and  _91
REMARK   34  A    between atoms: _91  and  _92
REMARK   35  A    between atoms: _95  and  _96
REMARK   36  A    between atoms: _101  and  _103
REMARK   37  A    between atoms: _103  and  _104
REMARK   38  A    between atoms: _103  and  _106
REMARK   39  A    between atoms: _106  and  _107
REMARK   40  A    between atoms: _117  and  _119
REMARK   41  A    between atoms: _119  and  _120
REMARK   42  A    between atoms: _119  and  _122
REMARK   43  A    between atoms: _122  and  _123
REMARK   44  A    between atoms: _128  and  _130
REMARK   45  A    between atoms: _130  and  _131
REMARK   46  A    between atoms: _133  and  _135
REMARK   47  A    between atoms: _135  and  _136
REMARK   48  A    between atoms: _135  and  _138
REMARK   49  A    between atoms: _138  and  _139
REMARK   50  A    between atoms: _144  and  _146
REMARK   51  A    between atoms: _146  and  _147
REMARK   52  A    between atoms: _146  and  _149
REMARK   53  A    between atoms: _149  and  _150
REMARK   54  A    between atoms: _150  and  _151
REMARK   55  A    between atoms: _151  and  _152
REMARK   56  A    between atoms: _152  and  _153
REMARK   57  A    between atoms: _157  and  _159
REMARK   58  A    between atoms: _159  and  _160
REMARK   59  A    between atoms: _159  and  _162
REMARK   60  A    between atoms: _162  and  _163
REMARK   61  A    between atoms: _168  and  _170
REMARK   62  A    between atoms: _170  and  _171
REMARK   63  A    between atoms: _170  and  _173
REMARK   64  A    between atoms: _173  and  _174
REMARK   65  A    between atoms: _180  and  _182
REMARK   66  A    between atoms: _182  and  _183
REMARK   67  A    between atoms: _182  and  _185
REMARK   68  A    between atoms: _185  and  _186
REMARK   69  A    between atoms: _191  and  _193
REMARK   70  A    between atoms: _193  and  _194
REMARK   71  A    between atoms: _196  and  _198
REMARK   72  A    between atoms: _198  and  _199
REMARK   73  A    between atoms: _198  and  _201
REMARK   74  A    between atoms: _201  and  _202
REMARK   75  A    between atoms: _202  and  _203
REMARK   76  A    between atoms: _206  and  _208
REMARK   77  A    between atoms: _208  and  _209
REMARK   78  A    between atoms: _208  and  _211
REMARK   79  A    between atoms: _211  and  _212
REMARK   80  A    between atoms: _212  and  _213
REMARK   81  A    between atoms: _217  and  _218
REMARK   82  A    between atoms: _223  and  _225
REMARK   83  A    between atoms: _225  and  _226
REMARK   84  A    between atoms: _225  and  _228
REMARK   85  A    between atoms: _228  and  _229
REMARK   86  A    between atoms: _229  and  _230
REMARK   87  A    between atoms: _233  and  _235
REMARK   88  A    between atoms: _235  and  _236
REMARK   89  A    between atoms: _235  and  _238
REMARK   90  A    between atoms: _238  and  _239
REMARK   91  A    between atoms: _239  and  _240
REMARK   92  A    between atoms: _243  and  _245
REMARK   93  A    between atoms: _245  and  _246
REMARK   94  A    between atoms: _245  and  _248
REMARK   95  A    between atoms: _248  and  _249
REMARK   96  A    between atoms: _252  and  _254
REMARK   97  A    between atoms: _254  and  _255
REMARK   98  A    between atoms: _254  and  _257
REMARK   99  A    between atoms: _257  and  _258
REMARK  100  A    between atoms: _258  and  _259
REMARK  101  A    between atoms: _261  and  _263
REMARK  102  A    between atoms: _263  and  _264
REMARK  103  A    between atoms: _263  and  _266
REMARK  104  A    between atoms: _269  and  _271
REMARK  105  A    between atoms: _271  and  _272
REMARK  106  A    between atoms: _271  and  _274
REMARK  107  A    between atoms: _274  and  _275
REMARK  108  A    between atoms: _278  and  _280
REMARK  109  A    between atoms: _280  and  _281
REMARK  110  A    between atoms: _280  and  _283
REMARK  111  A    between atoms: _283  and  _284
REMARK                            x       y       z     vdW  Elec       q    Type
REMARK                         _______ _______ _______ _____ _____    ______ ____
ROOT
ATOM      1  O   HOH     1       1.804 -15.555   9.618  0.00  0.00    +0.000 OA
ENDROOT
TORSDOF 0
REMARK  Name = ../refined-set-2016/4qy3/4qy3_pocket.pdb
REMARK  111 active torsions:
REMARK  status: ('A' for Active; 'I' for Inactive)
REMARK    1  A    between atoms: _1  and  _5
REMARK    2  A    between atoms: _5  and  _6
REMARK    3  A    between atoms: _5  and  _8
REMARK    4  A    between atoms: _8  and  _9
REMARK    5  A    between atoms: _14  and  _16
REMARK    6  A    between atoms: _16  and  _17
REMARK    7  A    between atoms: _16  and  _19
REMARK    8  A    between atoms: _19  and  _20
REMARK    9  A    between atoms: _30  and  _32
REMARK   10  A    between atoms: _32  and  _33
REMARK   11  A    between atoms: _35  and  _37
REMARK   12  A    between atoms: _37  and  _38
REMARK   13  A    between atoms: _37  and  _40
REMARK   14  A    between atoms: _40  and  _41
REMARK   15  A    between atoms: _46  and  _47
REMARK   16  A    between atoms: _49  and  _51
REMARK   17  A    between atoms: _51  and  _52
REMARK   18  A    between atoms: _54  and  _56
REMARK   19  A    between atoms: _56  and  _57
REMARK   20  A    between atoms: _56  and  _59
REMARK   21  A    between atoms: _59  and  _60
REMARK   22  A    between atoms: _60  and  _61
REMARK   23  A    between atoms: _61  and  _62
REMARK   24  A    between atoms: _62  and  _63
REMARK   25  A    between atoms: _67  and  _69
REMARK   26  A    between atoms: _69  and  _70
REMARK   27  A    between atoms: _69  and  _72
REMARK   28  A    between atoms: _72  and  _73
REMARK   29  A    between atoms: _78  and  _80
REMARK   30  A    between atoms: _80  and  _81
REMARK   31  A    between atoms: _80  and  _83
REMARK   32  A    between atoms: _83  and  _84
REMARK   33  A    between atoms: _89  and  _91
REMARK   34  A    between atoms: _91  and  _92
REMARK   35  A    between atoms: _95  and  _96
REMARK   36  A    between atoms: _101  and  _103
REMARK   37  A    between atoms: _103  and  _104
REMARK   38  A    between atoms: _103  and  _106
REMARK   39  A    between atoms: _106  and  _107
REMARK   40  A    between atoms: _117  and  _119
REMARK   41  A    between atoms: _119  and  _120
REMARK   42  A    between atoms: _119  and  _122
REMARK   43  A    between atoms: _122  and  _123
REMARK   44  A    between atoms: _128  and  _130
REMARK   45  A    between atoms: _130  and  _131
REMARK   46  A    between atoms: _133  and  _135
REMARK   47  A    between atoms: _135  and  _136
REMARK   48  A    between atoms: _135  and  _138
REMARK   49  A    between atoms: _138  and  _139
REMARK   50  A    between atoms: _144  and  _146
REMARK   51  A    between atoms: _146  and  _147
REMARK   52  A    between atoms: _146  and  _149
REMARK   53  A    between atoms: _149  and  _150
REMARK   54  A    between atoms: _150  and  _151
REMARK   55  A    between atoms: _151  and  _152
REMARK   56  A    between atoms: _152  and  _153
REMARK   57  A    between atoms: _157  and  _159
REMARK   58  A    between atoms: _159  and  _160
REMARK   59  A    between atoms: _159  and  _162
REMARK   60  A    between atoms: _162  and  _163
REMARK   61  A    between atoms: _168  and  _170
REMARK   62  A    between atoms: _170  and  _171
REMARK   63  A    between atoms: _170  and  _173
REMARK   64  A    between atoms: _173  and  _174
REMARK   65  A    between atoms: _180  and  _182
REMARK   66  A    between atoms: _182  and  _183
REMARK   67  A    between atoms: _182  and  _185
REMARK   68  A    between atoms: _185  and  _186
REMARK   69  A    between atoms: _191  and  _193
REMARK   70  A    between atoms: _193  and  _194
REMARK   71  A    between atoms: _196  and  _198
REMARK   72  A    between atoms: _198  and  _199
REMARK   73  A    between atoms: _198  and  _201
REMARK   74  A    between atoms: _201  and  _202
REMARK   75  A    between atoms: _202  and  _203
REMARK   76  A    between atoms: _206  and  _208
REMARK   77  A    between atoms: _208  and  _209
REMARK   78  A    between atoms: _208  and  _211
REMARK   79  A    between atoms: _211  and  _212
REMARK   80  A    between atoms: _212  and  _213
REMARK   81  A    between atoms: _217  and  _218
REMARK   82  A    between atoms: _223  and  _225
REMARK   83  A    between atoms: _225  and  _226
REMARK   84  A    between atoms: _225  and  _228
REMARK   85  A    between atoms: _228  and  _229
REMARK   86  A    between atoms: _229  and  _230
REMARK   87  A    between atoms: _233  and  _235
REMARK   88  A    between atoms: _235  and  _236
REMARK   89  A    between atoms: _235  and  _238
REMARK   90  A    between atoms: _238  and  _239
REMARK   91  A    between atoms: _239  and  _240
REMARK   92  A    between atoms: _243  and  _245
REMARK   93  A    between atoms: _245  and  _246
REMARK   94  A    between atoms: _245  and  _248
REMARK   95  A    between atoms: _248  and  _249
REMARK   96  A    between atoms: _252  and  _254
REMARK   97  A    between atoms: _254  and  _255
REMARK   98  A    between atoms: _254  and  _257
REMARK   99  A    between atoms: _257  and  _258
REMARK  100  A    between atoms: _258  and  _259
REMARK  101  A    between atoms: _261  and  _263
REMARK  102  A    between atoms: _263  and  _264
REMARK  103  A    between atoms: _263  and  _266
REMARK  104  A    between atoms: _269  and  _271
REMARK  105  A    between atoms: _271  and  _272
REMARK  106  A    between atoms: _271  and  _274
REMARK  107  A    between atoms: _274  and  _275
REMARK  108  A    between atoms: _278  and  _280
REMARK  109  A    between atoms: _280  and  _281
REMARK  110  A    between atoms: _280  and  _283
REMARK  111  A    between atoms: _283  and  _284
REMARK                            x       y       z     vdW  Elec       q    Type
REMARK                         _______ _______ _______ _____ _____    ______ ____
ROOT
ATOM      1  O   HOH     1       2.046 -11.613  13.190  0.00  0.00    +0.000 OA
ENDROOT
TORSDOF 0
REMARK  Name = ../refined-set-2016/4qy3/4qy3_pocket.pdb
REMARK  111 active torsions:
REMARK  status: ('A' for Active; 'I' for Inactive)
REMARK    1  A    between atoms: _1  and  _5
REMARK    2  A    between atoms: _5  and  _6
REMARK    3  A    between atoms: _5  and  _8
REMARK    4  A    between atoms: _8  and  _9
REMARK    5  A    between atoms: _14  and  _16
REMARK    6  A    between atoms: _16  and  _17
REMARK    7  A    between atoms: _16  and  _19
REMARK    8  A    between atoms: _19  and  _20
REMARK    9  A    between atoms: _30  and  _32
REMARK   10  A    between atoms: _32  and  _33
REMARK   11  A    between atoms: _35  and  _37
REMARK   12  A    between atoms: _37  and  _38
REMARK   13  A    between atoms: _37  and  _40
REMARK   14  A    between atoms: _40  and  _41
REMARK   15  A    between atoms: _46  and  _47
REMARK   16  A    between atoms: _49  and  _51
REMARK   17  A    between atoms: _51  and  _52
REMARK   18  A    between atoms: _54  and  _56
REMARK   19  A    between atoms: _56  and  _57
REMARK   20  A    between atoms: _56  and  _59
REMARK   21  A    between atoms: _59  and  _60
REMARK   22  A    between atoms: _60  and  _61
REMARK   23  A    between atoms: _61  and  _62
REMARK   24  A    between atoms: _62  and  _63
REMARK   25  A    between atoms: _67  and  _69
REMARK   26  A    between atoms: _69  and  _70
REMARK   27  A    between atoms: _69  and  _72
REMARK   28  A    between atoms: _72  and  _73
REMARK   29  A    between atoms: _78  and  _80
REMARK   30  A    between atoms: _80  and  _81
REMARK   31  A    between atoms: _80  and  _83
REMARK   32  A    between atoms: _83  and  _84
REMARK   33  A    between atoms: _89  and  _91
REMARK   34  A    between atoms: _91  and  _92
REMARK   35  A    between atoms: _95  and  _96
REMARK   36  A    between atoms: _101  and  _103
REMARK   37  A    between atoms: _103  and  _104
REMARK   38  A    between atoms: _103  and  _106
REMARK   39  A    between atoms: _106  and  _107
REMARK   40  A    between atoms: _117  and  _119
REMARK   41  A    between atoms: _119  and  _120
REMARK   42  A    between atoms: _119  and  _122
REMARK   43  A    between atoms: _122  and  _123
REMARK   44  A    between atoms: _128  and  _130
REMARK   45  A    between atoms: _130  and  _131
REMARK   46  A    between atoms: _133  and  _135
REMARK   47  A    between atoms: _135  and  _136
REMARK   48  A    between atoms: _135  and  _138
REMARK   49  A    between atoms: _138  and  _139
REMARK   50  A    between atoms: _144  and  _146
REMARK   51  A    between atoms: _146  and  _147
REMARK   52  A    between atoms: _146  and  _149
REMARK   53  A    between atoms: _149  and  _150
REMARK   54  A    between atoms: _150  and  _151
REMARK   55  A    between atoms: _151  and  _152
REMARK   56  A    between atoms: _152  and  _153
REMARK   57  A    between atoms: _157  and  _159
REMARK   58  A    between atoms: _159  and  _160
REMARK   59  A    between atoms: _159  and  _162
REMARK   60  A    between atoms: _162  and  _163
REMARK   61  A    between atoms: _168  and  _170
REMARK   62  A    between atoms: _170  and  _171
REMARK   63  A    between atoms: _170  and  _173
REMARK   64  A    between atoms: _173  and  _174
REMARK   65  A    between atoms: _180  and  _182
REMARK   66  A    between atoms: _182  and  _183
REMARK   67  A    between atoms: _182  and  _185
REMARK   68  A    between atoms: _185  and  _186
REMARK   69  A    between atoms: _191  and  _193
REMARK   70  A    between atoms: _193  and  _194
REMARK   71  A    between atoms: _196  and  _198
REMARK   72  A    between atoms: _198  and  _199
REMARK   73  A    between atoms: _198  and  _201
REMARK   74  A    between atoms: _201  and  _202
REMARK   75  A    between atoms: _202  and  _203
REMARK   76  A    between atoms: _206  and  _208
REMARK   77  A    between atoms: _208  and  _209
REMARK   78  A    between atoms: _208  and  _211
REMARK   79  A    between atoms: _211  and  _212
REMARK   80  A    between atoms: _212  and  _213
REMARK   81  A    between atoms: _217  and  _218
REMARK   82  A    between atoms: _223  and  _225
REMARK   83  A    between atoms: _225  and  _226
REMARK   84  A    between atoms: _225  and  _228
REMARK   85  A    between atoms: _228  and  _229
REMARK   86  A    between atoms: _229  and  _230
REMARK   87  A    between atoms: _233  and  _235
REMARK   88  A    between atoms: _235  and  _236
REMARK   89  A    between atoms: _235  and  _238
REMARK   90  A    between atoms: _238  and  _239
REMARK   91  A    between atoms: _239  and  _240
REMARK   92  A    between atoms: _243  and  _245
REMARK   93  A    between atoms: _245  and  _246
REMARK   94  A    between atoms: _245  and  _248
REMARK   95  A    between atoms: _248  and  _249
REMARK   96  A    between atoms: _252  and  _254
REMARK   97  A    between atoms: _254  and  _255
REMARK   98  A    between atoms: _254  and  _257
REMARK   99  A    between atoms: _257  and  _258
REMARK  100  A    between atoms: _258  and  _259
REMARK  101  A    between atoms: _261  and  _263
REMARK  102  A    between atoms: _263  and  _264
REMARK  103  A    between atoms: _263  and  _266
REMARK  104  A    between atoms: _269  and  _271
REMARK  105  A    between atoms: _271  and  _272
REMARK  106  A    between atoms: _271  and  _274
REMARK  107  A    between atoms: _274  and  _275
REMARK  108  A    between atoms: _278  and  _280
REMARK  109  A    between atoms: _280  and  _281
REMARK  110  A    between atoms: _280  and  _283
REMARK  111  A    between atoms: _283  and  _284
REMARK                            x       y       z     vdW  Elec       q    Type
REMARK                         _______ _______ _______ _____ _____    ______ ____
ROOT
ATOM      1  O   HOH     1       2.784 -14.663   1.411  0.00  0.00    +0.000 OA
ENDROOT
TORSDOF 0
REMARK  Name = ../refined-set-2016/4qy3/4qy3_pocket.pdb
REMARK  111 active torsions:
REMARK  status: ('A' for Active; 'I' for Inactive)
REMARK    1  A    between atoms: _1  and  _5
REMARK    2  A    between atoms: _5  and  _6
REMARK    3  A    between atoms: _5  and  _8
REMARK    4  A    between atoms: _8  and  _9
REMARK    5  A    between atoms: _14  and  _16
REMARK    6  A    between atoms: _16  and  _17
REMARK    7  A    between atoms: _16  and  _19
REMARK    8  A    between atoms: _19  and  _20
REMARK    9  A    between atoms: _30  and  _32
REMARK   10  A    between atoms: _32  and  _33
REMARK   11  A    between atoms: _35  and  _37
REMARK   12  A    between atoms: _37  and  _38
REMARK   13  A    between atoms: _37  and  _40
REMARK   14  A    between atoms: _40  and  _41
REMARK   15  A    between atoms: _46  and  _47
REMARK   16  A    between atoms: _49  and  _51
REMARK   17  A    between atoms: _51  and  _52
REMARK   18  A    between atoms: _54  and  _56
REMARK   19  A    between atoms: _56  and  _57
REMARK   20  A    between atoms: _56  and  _59
REMARK   21  A    between atoms: _59  and  _60
REMARK   22  A    between atoms: _60  and  _61
REMARK   23  A    between atoms: _61  and  _62
REMARK   24  A    between atoms: _62  and  _63
REMARK   25  A    between atoms: _67  and  _69
REMARK   26  A    between atoms: _69  and  _70
REMARK   27  A    between atoms: _69  and  _72
REMARK   28  A    between atoms: _72  and  _73
REMARK   29  A    between atoms: _78  and  _80
REMARK   30  A    between atoms: _80  and  _81
REMARK   31  A    between atoms: _80  and  _83
REMARK   32  A    between atoms: _83  and  _84
REMARK   33  A    between atoms: _89  and  _91
REMARK   34  A    between atoms: _91  and  _92
REMARK   35  A    between atoms: _95  and  _96
REMARK   36  A    between atoms: _101  and  _103
REMARK   37  A    between atoms: _103  and  _104
REMARK   38  A    between atoms: _103  and  _106
REMARK   39  A    between atoms: _106  and  _107
REMARK   40  A    between atoms: _117  and  _119
REMARK   41  A    between atoms: _119  and  _120
REMARK   42  A    between atoms: _119  and  _122
REMARK   43  A    between atoms: _122  and  _123
REMARK   44  A    between atoms: _128  and  _130
REMARK   45  A    between atoms: _130  and  _131
REMARK   46  A    between atoms: _133  and  _135
REMARK   47  A    between atoms: _135  and  _136
REMARK   48  A    between atoms: _135  and  _138
REMARK   49  A    between atoms: _138  and  _139
REMARK   50  A    between atoms: _144  and  _146
REMARK   51  A    between atoms: _146  and  _147
REMARK   52  A    between atoms: _146  and  _149
REMARK   53  A    between atoms: _149  and  _150
REMARK   54  A    between atoms: _150  and  _151
REMARK   55  A    between atoms: _151  and  _152
REMARK   56  A    between atoms: _152  and  _153
REMARK   57  A    between atoms: _157  and  _159
REMARK   58  A    between atoms: _159  and  _160
REMARK   59  A    between atoms: _159  and  _162
REMARK   60  A    between atoms: _162  and  _163
REMARK   61  A    between atoms: _168  and  _170
REMARK   62  A    between atoms: _170  and  _171
REMARK   63  A    between atoms: _170  and  _173
REMARK   64  A    between atoms: _173  and  _174
REMARK   65  A    between atoms: _180  and  _182
REMARK   66  A    between atoms: _182  and  _183
REMARK   67  A    between atoms: _182  and  _185
REMARK   68  A    between atoms: _185  and  _186
REMARK   69  A    between atoms: _191  and  _193
REMARK   70  A    between atoms: _193  and  _194
REMARK   71  A    between atoms: _196  and  _198
REMARK   72  A    between atoms: _198  and  _199
REMARK   73  A    between atoms: _198  and  _201
REMARK   74  A    between atoms: _201  and  _202
REMARK   75  A    between atoms: _202  and  _203
REMARK   76  A    between atoms: _206  and  _208
REMARK   77  A    between atoms: _208  and  _209
REMARK   78  A    between atoms: _208  and  _211
REMARK   79  A    between atoms: _211  and  _212
REMARK   80  A    between atoms: _212  and  _213
REMARK   81  A    between atoms: _217  and  _218
REMARK   82  A    between atoms: _223  and  _225
REMARK   83  A    between atoms: _225  and  _226
REMARK   84  A    between atoms: _225  and  _228
REMARK   85  A    between atoms: _228  and  _229
REMARK   86  A    between atoms: _229  and  _230
REMARK   87  A    between atoms: _233  and  _235
REMARK   88  A    between atoms: _235  and  _236
REMARK   89  A    between atoms: _235  and  _238
REMARK   90  A    between atoms: _238  and  _239
REMARK   91  A    between atoms: _239  and  _240
REMARK   92  A    between atoms: _243  and  _245
REMARK   93  A    between atoms: _245  and  _246
REMARK   94  A    between atoms: _245  and  _248
REMARK   95  A    between atoms: _248  and  _249
REMARK   96  A    between atoms: _252  and  _254
REMARK   97  A    between atoms: _254  and  _255
REMARK   98  A    between atoms: _254  and  _257
REMARK   99  A    between atoms: _257  and  _258
REMARK  100  A    between atoms: _258  and  _259
REMARK  101  A    between atoms: _261  and  _263
REMARK  102  A    between atoms: _263  and  _264
REMARK  103  A    between atoms: _263  and  _266
REMARK  104  A    between atoms: _269  and  _271
REMARK  105  A    between atoms: _271  and  _272
REMARK  106  A    between atoms: _271  and  _274
REMARK  107  A    between atoms: _274  and  _275
REMARK  108  A    between atoms: _278  and  _280
REMARK  109  A    between atoms: _280  and  _281
REMARK  110  A    between atoms: _280  and  _283
REMARK  111  A    between atoms: _283  and  _284
REMARK                            x       y       z     vdW  Elec       q    Type
REMARK                         _______ _______ _______ _____ _____    ______ ____
ROOT
ATOM      1  O   HOH     1       9.993  -9.810   8.624  0.00  0.00    +0.000 OA
ENDROOT
TORSDOF 0
REMARK  Name = ../refined-set-2016/4qy3/4qy3_pocket.pdb
REMARK  111 active torsions:
REMARK  status: ('A' for Active; 'I' for Inactive)
REMARK    1  A    between atoms: _1  and  _5
REMARK    2  A    between atoms: _5  and  _6
REMARK    3  A    between atoms: _5  and  _8
REMARK    4  A    between atoms: _8  and  _9
REMARK    5  A    between atoms: _14  and  _16
REMARK    6  A    between atoms: _16  and  _17
REMARK    7  A    between atoms: _16  and  _19
REMARK    8  A    between atoms: _19  and  _20
REMARK    9  A    between atoms: _30  and  _32
REMARK   10  A    between atoms: _32  and  _33
REMARK   11  A    between atoms: _35  and  _37
REMARK   12  A    between atoms: _37  and  _38
REMARK   13  A    between atoms: _37  and  _40
REMARK   14  A    between atoms: _40  and  _41
REMARK   15  A    between atoms: _46  and  _47
REMARK   16  A    between atoms: _49  and  _51
REMARK   17  A    between atoms: _51  and  _52
REMARK   18  A    between atoms: _54  and  _56
REMARK   19  A    between atoms: _56  and  _57
REMARK   20  A    between atoms: _56  and  _59
REMARK   21  A    between atoms: _59  and  _60
REMARK   22  A    between atoms: _60  and  _61
REMARK   23  A    between atoms: _61  and  _62
REMARK   24  A    between atoms: _62  and  _63
REMARK   25  A    between atoms: _67  and  _69
REMARK   26  A    between atoms: _69  and  _70
REMARK   27  A    between atoms: _69  and  _72
REMARK   28  A    between atoms: _72  and  _73
REMARK   29  A    between atoms: _78  and  _80
REMARK   30  A    between atoms: _80  and  _81
REMARK   31  A    between atoms: _80  and  _83
REMARK   32  A    between atoms: _83  and  _84
REMARK   33  A    between atoms: _89  and  _91
REMARK   34  A    between atoms: _91  and  _92
REMARK   35  A    between atoms: _95  and  _96
REMARK   36  A    between atoms: _101  and  _103
REMARK   37  A    between atoms: _103  and  _104
REMARK   38  A    between atoms: _103  and  _106
REMARK   39  A    between atoms: _106  and  _107
REMARK   40  A    between atoms: _117  and  _119
REMARK   41  A    between atoms: _119  and  _120
REMARK   42  A    between atoms: _119  and  _122
REMARK   43  A    between atoms: _122  and  _123
REMARK   44  A    between atoms: _128  and  _130
REMARK   45  A    between atoms: _130  and  _131
REMARK   46  A    between atoms: _133  and  _135
REMARK   47  A    between atoms: _135  and  _136
REMARK   48  A    between atoms: _135  and  _138
REMARK   49  A    between atoms: _138  and  _139
REMARK   50  A    between atoms: _144  and  _146
REMARK   51  A    between atoms: _146  and  _147
REMARK   52  A    between atoms: _146  and  _149
REMARK   53  A    between atoms: _149  and  _150
REMARK   54  A    between atoms: _150  and  _151
REMARK   55  A    between atoms: _151  and  _152
REMARK   56  A    between atoms: _152  and  _153
REMARK   57  A    between atoms: _157  and  _159
REMARK   58  A    between atoms: _159  and  _160
REMARK   59  A    between atoms: _159  and  _162
REMARK   60  A    between atoms: _162  and  _163
REMARK   61  A    between atoms: _168  and  _170
REMARK   62  A    between atoms: _170  and  _171
REMARK   63  A    between atoms: _170  and  _173
REMARK   64  A    between atoms: _173  and  _174
REMARK   65  A    between atoms: _180  and  _182
REMARK   66  A    between atoms: _182  and  _183
REMARK   67  A    between atoms: _182  and  _185
REMARK   68  A    between atoms: _185  and  _186
REMARK   69  A    between atoms: _191  and  _193
REMARK   70  A    between atoms: _193  and  _194
REMARK   71  A    between atoms: _196  and  _198
REMARK   72  A    between atoms: _198  and  _199
REMARK   73  A    between atoms: _198  and  _201
REMARK   74  A    between atoms: _201  and  _202
REMARK   75  A    between atoms: _202  and  _203
REMARK   76  A    between atoms: _206  and  _208
REMARK   77  A    between atoms: _208  and  _209
REMARK   78  A    between atoms: _208  and  _211
REMARK   79  A    between atoms: _211  and  _212
REMARK   80  A    between atoms: _212  and  _213
REMARK   81  A    between atoms: _217  and  _218
REMARK   82  A    between atoms: _223  and  _225
REMARK   83  A    between atoms: _225  and  _226
REMARK   84  A    between atoms: _225  and  _228
REMARK   85  A    between atoms: _228  and  _229
REMARK   86  A    between atoms: _229  and  _230
REMARK   87  A    between atoms: _233  and  _235
REMARK   88  A    between atoms: _235  and  _236
REMARK   89  A    between atoms: _235  and  _238
REMARK   90  A    between atoms: _238  and  _239
REMARK   91  A    between atoms: _239  and  _240
REMARK   92  A    between atoms: _243  and  _245
REMARK   93  A    between atoms: _245  and  _246
REMARK   94  A    between atoms: _245  and  _248
REMARK   95  A    between atoms: _248  and  _249
REMARK   96  A    between atoms: _252  and  _254
REMARK   97  A    between atoms: _254  and  _255
REMARK   98  A    between atoms: _254  and  _257
REMARK   99  A    between atoms: _257  and  _258
REMARK  100  A    between atoms: _258  and  _259
REMARK  101  A    between atoms: _261  and  _263
REMARK  102  A    between atoms: _263  and  _264
REMARK  103  A    between atoms: _263  and  _266
REMARK  104  A    between atoms: _269  and  _271
REMARK  105  A    between atoms: _271  and  _272
REMARK  106  A    between atoms: _271  and  _274
REMARK  107  A    between atoms: _274  and  _275
REMARK  108  A    between atoms: _278  and  _280
REMARK  109  A    between atoms: _280  and  _281
REMARK  110  A    between atoms: _280  and  _283
REMARK  111  A    between atoms: _283  and  _284
REMARK                            x       y       z     vdW  Elec       q    Type
REMARK                         _______ _______ _______ _____ _____    ______ ____
ROOT
ATOM      1  O   HOH     1       2.786 -13.509   8.115  0.00  0.00    +0.000 OA
ENDROOT
TORSDOF 0
REMARK  Name = ../refined-set-2016/4qy3/4qy3_pocket.pdb
REMARK  111 active torsions:
REMARK  status: ('A' for Active; 'I' for Inactive)
REMARK    1  A    between atoms: _1  and  _5
REMARK    2  A    between atoms: _5  and  _6
REMARK    3  A    between atoms: _5  and  _8
REMARK    4  A    between atoms: _8  and  _9
REMARK    5  A    between atoms: _14  and  _16
REMARK    6  A    between atoms: _16  and  _17
REMARK    7  A    between atoms: _16  and  _19
REMARK    8  A    between atoms: _19  and  _20
REMARK    9  A    between atoms: _30  and  _32
REMARK   10  A    between atoms: _32  and  _33
REMARK   11  A    between atoms: _35  and  _37
REMARK   12  A    between atoms: _37  and  _38
REMARK   13  A    between atoms: _37  and  _40
REMARK   14  A    between atoms: _40  and  _41
REMARK   15  A    between atoms: _46  and  _47
REMARK   16  A    between atoms: _49  and  _51
REMARK   17  A    between atoms: _51  and  _52
REMARK   18  A    between atoms: _54  and  _56
REMARK   19  A    between atoms: _56  and  _57
REMARK   20  A    between atoms: _56  and  _59
REMARK   21  A    between atoms: _59  and  _60
REMARK   22  A    between atoms: _60  and  _61
REMARK   23  A    between atoms: _61  and  _62
REMARK   24  A    between atoms: _62  and  _63
REMARK   25  A    between atoms: _67  and  _69
REMARK   26  A    between atoms: _69  and  _70
REMARK   27  A    between atoms: _69  and  _72
REMARK   28  A    between atoms: _72  and  _73
REMARK   29  A    between atoms: _78  and  _80
REMARK   30  A    between atoms: _80  and  _81
REMARK   31  A    between atoms: _80  and  _83
REMARK   32  A    between atoms: _83  and  _84
REMARK   33  A    between atoms: _89  and  _91
REMARK   34  A    between atoms: _91  and  _92
REMARK   35  A    between atoms: _95  and  _96
REMARK   36  A    between atoms: _101  and  _103
REMARK   37  A    between atoms: _103  and  _104
REMARK   38  A    between atoms: _103  and  _106
REMARK   39  A    between atoms: _106  and  _107
REMARK   40  A    between atoms: _117  and  _119
REMARK   41  A    between atoms: _119  and  _120
REMARK   42  A    between atoms: _119  and  _122
REMARK   43  A    between atoms: _122  and  _123
REMARK   44  A    between atoms: _128  and  _130
REMARK   45  A    between atoms: _130  and  _131
REMARK   46  A    between atoms: _133  and  _135
REMARK   47  A    between atoms: _135  and  _136
REMARK   48  A    between atoms: _135  and  _138
REMARK   49  A    between atoms: _138  and  _139
REMARK   50  A    between atoms: _144  and  _146
REMARK   51  A    between atoms: _146  and  _147
REMARK   52  A    between atoms: _146  and  _149
REMARK   53  A    between atoms: _149  and  _150
REMARK   54  A    between atoms: _150  and  _151
REMARK   55  A    between atoms: _151  and  _152
REMARK   56  A    between atoms: _152  and  _153
REMARK   57  A    between atoms: _157  and  _159
REMARK   58  A    between atoms: _159  and  _160
REMARK   59  A    between atoms: _159  and  _162
REMARK   60  A    between atoms: _162  and  _163
REMARK   61  A    between atoms: _168  and  _170
REMARK   62  A    between atoms: _170  and  _171
REMARK   63  A    between atoms: _170  and  _173
REMARK   64  A    between atoms: _173  and  _174
REMARK   65  A    between atoms: _180  and  _182
REMARK   66  A    between atoms: _182  and  _183
REMARK   67  A    between atoms: _182  and  _185
REMARK   68  A    between atoms: _185  and  _186
REMARK   69  A    between atoms: _191  and  _193
REMARK   70  A    between atoms: _193  and  _194
REMARK   71  A    between atoms: _196  and  _198
REMARK   72  A    between atoms: _198  and  _199
REMARK   73  A    between atoms: _198  and  _201
REMARK   74  A    between atoms: _201  and  _202
REMARK   75  A    between atoms: _202  and  _203
REMARK   76  A    between atoms: _206  and  _208
REMARK   77  A    between atoms: _208  and  _209
REMARK   78  A    between atoms: _208  and  _211
REMARK   79  A    between atoms: _211  and  _212
REMARK   80  A    between atoms: _212  and  _213
REMARK   81  A    between atoms: _217  and  _218
REMARK   82  A    between atoms: _223  and  _225
REMARK   83  A    between atoms: _225  and  _226
REMARK   84  A    between atoms: _225  and  _228
REMARK   85  A    between atoms: _228  and  _229
REMARK   86  A    between atoms: _229  and  _230
REMARK   87  A    between atoms: _233  and  _235
REMARK   88  A    between atoms: _235  and  _236
REMARK   89  A    between atoms: _235  and  _238
REMARK   90  A    between atoms: _238  and  _239
REMARK   91  A    between atoms: _239  and  _240
REMARK   92  A    between atoms: _243  and  _245
REMARK   93  A    between atoms: _245  and  _246
REMARK   94  A    between atoms: _245  and  _248
REMARK   95  A    between atoms: _248  and  _249
REMARK   96  A    between atoms: _252  and  _254
REMARK   97  A    between atoms: _254  and  _255
REMARK   98  A    between atoms: _254  and  _257
REMARK   99  A    between atoms: _257  and  _258
REMARK  100  A    between atoms: _258  and  _259
REMARK  101  A    between atoms: _261  and  _263
REMARK  102  A    between atoms: _263  and  _264
REMARK  103  A    between atoms: _263  and  _266
REMARK  104  A    between atoms: _269  and  _271
REMARK  105  A    between atoms: _271  and  _272
REMARK  106  A    between atoms: _271  and  _274
REMARK  107  A    between atoms: _274  and  _275
REMARK  108  A    between atoms: _278  and  _280
REMARK  109  A    between atoms: _280  and  _281
REMARK  110  A    between atoms: _280  and  _283
REMARK  111  A    between atoms: _283  and  _284
REMARK                            x       y       z     vdW  Elec       q    Type
REMARK                         _______ _______ _______ _____ _____    ______ ____
ROOT
ATOM      1  O   HOH     1       3.720  -2.335   4.893  0.00  0.00    +0.000 OA
ENDROOT
TORSDOF 0
REMARK  Name = ../refined-set-2016/4qy3/4qy3_pocket.pdb
REMARK  111 active torsions:
REMARK  status: ('A' for Active; 'I' for Inactive)
REMARK    1  A    between atoms: _1  and  _5
REMARK    2  A    between atoms: _5  and  _6
REMARK    3  A    between atoms: _5  and  _8
REMARK    4  A    between atoms: _8  and  _9
REMARK    5  A    between atoms: _14  and  _16
REMARK    6  A    between atoms: _16  and  _17
REMARK    7  A    between atoms: _16  and  _19
REMARK    8  A    between atoms: _19  and  _20
REMARK    9  A    between atoms: _30  and  _32
REMARK   10  A    between atoms: _32  and  _33
REMARK   11  A    between atoms: _35  and  _37
REMARK   12  A    between atoms: _37  and  _38
REMARK   13  A    between atoms: _37  and  _40
REMARK   14  A    between atoms: _40  and  _41
REMARK   15  A    between atoms: _46  and  _47
REMARK   16  A    between atoms: _49  and  _51
REMARK   17  A    between atoms: _51  and  _52
REMARK   18  A    between atoms: _54  and  _56
REMARK   19  A    between atoms: _56  and  _57
REMARK   20  A    between atoms: _56  and  _59
REMARK   21  A    between atoms: _59  and  _60
REMARK   22  A    between atoms: _60  and  _61
REMARK   23  A    between atoms: _61  and  _62
REMARK   24  A    between atoms: _62  and  _63
REMARK   25  A    between atoms: _67  and  _69
REMARK   26  A    between atoms: _69  and  _70
REMARK   27  A    between atoms: _69  and  _72
REMARK   28  A    between atoms: _72  and  _73
REMARK   29  A    between atoms: _78  and  _80
REMARK   30  A    between atoms: _80  and  _81
REMARK   31  A    between atoms: _80  and  _83
REMARK   32  A    between atoms: _83  and  _84
REMARK   33  A    between atoms: _89  and  _91
REMARK   34  A    between atoms: _91  and  _92
REMARK   35  A    between atoms: _95  and  _96
REMARK   36  A    between atoms: _101  and  _103
REMARK   37  A    between atoms: _103  and  _104
REMARK   38  A    between atoms: _103  and  _106
REMARK   39  A    between atoms: _106  and  _107
REMARK   40  A    between atoms: _117  and  _119
REMARK   41  A    between atoms: _119  and  _120
REMARK   42  A    between atoms: _119  and  _122
REMARK   43  A    between atoms: _122  and  _123
REMARK   44  A    between atoms: _128  and  _130
REMARK   45  A    between atoms: _130  and  _131
REMARK   46  A    between atoms: _133  and  _135
REMARK   47  A    between atoms: _135  and  _136
REMARK   48  A    between atoms: _135  and  _138
REMARK   49  A    between atoms: _138  and  _139
REMARK   50  A    between atoms: _144  and  _146
REMARK   51  A    between atoms: _146  and  _147
REMARK   52  A    between atoms: _146  and  _149
REMARK   53  A    between atoms: _149  and  _150
REMARK   54  A    between atoms: _150  and  _151
REMARK   55  A    between atoms: _151  and  _152
REMARK   56  A    between atoms: _152  and  _153
REMARK   57  A    between atoms: _157  and  _159
REMARK   58  A    between atoms: _159  and  _160
REMARK   59  A    between atoms: _159  and  _162
REMARK   60  A    between atoms: _162  and  _163
REMARK   61  A    between atoms: _168  and  _170
REMARK   62  A    between atoms: _170  and  _171
REMARK   63  A    between atoms: _170  and  _173
REMARK   64  A    between atoms: _173  and  _174
REMARK   65  A    between atoms: _180  and  _182
REMARK   66  A    between atoms: _182  and  _183
REMARK   67  A    between atoms: _182  and  _185
REMARK   68  A    between atoms: _185  and  _186
REMARK   69  A    between atoms: _191  and  _193
REMARK   70  A    between atoms: _193  and  _194
REMARK   71  A    between atoms: _196  and  _198
REMARK   72  A    between atoms: _198  and  _199
REMARK   73  A    between atoms: _198  and  _201
REMARK   74  A    between atoms: _201  and  _202
REMARK   75  A    between atoms: _202  and  _203
REMARK   76  A    between atoms: _206  and  _208
REMARK   77  A    between atoms: _208  and  _209
REMARK   78  A    between atoms: _208  and  _211
REMARK   79  A    between atoms: _211  and  _212
REMARK   80  A    between atoms: _212  and  _213
REMARK   81  A    between atoms: _217  and  _218
REMARK   82  A    between atoms: _223  and  _225
REMARK   83  A    between atoms: _225  and  _226
REMARK   84  A    between atoms: _225  and  _228
REMARK   85  A    between atoms: _228  and  _229
REMARK   86  A    between atoms: _229  and  _230
REMARK   87  A    between atoms: _233  and  _235
REMARK   88  A    between atoms: _235  and  _236
REMARK   89  A    between atoms: _235  and  _238
REMARK   90  A    between atoms: _238  and  _239
REMARK   91  A    between atoms: _239  and  _240
REMARK   92  A    between atoms: _243  and  _245
REMARK   93  A    between atoms: _245  and  _246
REMARK   94  A    between atoms: _245  and  _248
REMARK   95  A    between atoms: _248  and  _249
REMARK   96  A    between atoms: _252  and  _254
REMARK   97  A    between atoms: _254  and  _255
REMARK   98  A    between atoms: _254  and  _257
REMARK   99  A    between atoms: _257  and  _258
REMARK  100  A    between atoms: _258  and  _259
REMARK  101  A    between atoms: _261  and  _263
REMARK  102  A    between atoms: _263  and  _264
REMARK  103  A    between atoms: _263  and  _266
REMARK  104  A    between atoms: _269  and  _271
REMARK  105  A    between atoms: _271  and  _272
REMARK  106  A    between atoms: _271  and  _274
REMARK  107  A    between atoms: _274  and  _275
REMARK  108  A    between atoms: _278  and  _280
REMARK  109  A    between atoms: _280  and  _281
REMARK  110  A    between atoms: _280  and  _283
REMARK  111  A    between atoms: _283  and  _284
REMARK                            x       y       z     vdW  Elec       q    Type
REMARK                         _______ _______ _______ _____ _____    ______ ____
ROOT
ATOM      1  O   HOH     1       6.245 -14.699   5.821  0.00  0.00    +0.000 OA
ENDROOT
TORSDOF 0
REMARK  Name = ../refined-set-2016/4qy3/4qy3_pocket.pdb
REMARK  111 active torsions:
REMARK  status: ('A' for Active; 'I' for Inactive)
REMARK    1  A    between atoms: _1  and  _5
REMARK    2  A    between atoms: _5  and  _6
REMARK    3  A    between atoms: _5  and  _8
REMARK    4  A    between atoms: _8  and  _9
REMARK    5  A    between atoms: _14  and  _16
REMARK    6  A    between atoms: _16  and  _17
REMARK    7  A    between atoms: _16  and  _19
REMARK    8  A    between atoms: _19  and  _20
REMARK    9  A    between atoms: _30  and  _32
REMARK   10  A    between atoms: _32  and  _33
REMARK   11  A    between atoms: _35  and  _37
REMARK   12  A    between atoms: _37  and  _38
REMARK   13  A    between atoms: _37  and  _40
REMARK   14  A    between atoms: _40  and  _41
REMARK   15  A    between atoms: _46  and  _47
REMARK   16  A    between atoms: _49  and  _51
REMARK   17  A    between atoms: _51  and  _52
REMARK   18  A    between atoms: _54  and  _56
REMARK   19  A    between atoms: _56  and  _57
REMARK   20  A    between atoms: _56  and  _59
REMARK   21  A    between atoms: _59  and  _60
REMARK   22  A    between atoms: _60  and  _61
REMARK   23  A    between atoms: _61  and  _62
REMARK   24  A    between atoms: _62  and  _63
REMARK   25  A    between atoms: _67  and  _69
REMARK   26  A    between atoms: _69  and  _70
REMARK   27  A    between atoms: _69  and  _72
REMARK   28  A    between atoms: _72  and  _73
REMARK   29  A    between atoms: _78  and  _80
REMARK   30  A    between atoms: _80  and  _81
REMARK   31  A    between atoms: _80  and  _83
REMARK   32  A    between atoms: _83  and  _84
REMARK   33  A    between atoms: _89  and  _91
REMARK   34  A    between atoms: _91  and  _92
REMARK   35  A    between atoms: _95  and  _96
REMARK   36  A    between atoms: _101  and  _103
REMARK   37  A    between atoms: _103  and  _104
REMARK   38  A    between atoms: _103  and  _106
REMARK   39  A    between atoms: _106  and  _107
REMARK   40  A    between atoms: _117  and  _119
REMARK   41  A    between atoms: _119  and  _120
REMARK   42  A    between atoms: _119  and  _122
REMARK   43  A    between atoms: _122  and  _123
REMARK   44  A    between atoms: _128  and  _130
REMARK   45  A    between atoms: _130  and  _131
REMARK   46  A    between atoms: _133  and  _135
REMARK   47  A    between atoms: _135  and  _136
REMARK   48  A    between atoms: _135  and  _138
REMARK   49  A    between atoms: _138  and  _139
REMARK   50  A    between atoms: _144  and  _146
REMARK   51  A    between atoms: _146  and  _147
REMARK   52  A    between atoms: _146  and  _149
REMARK   53  A    between atoms: _149  and  _150
REMARK   54  A    between atoms: _150  and  _151
REMARK   55  A    between atoms: _151  and  _152
REMARK   56  A    between atoms: _152  and  _153
REMARK   57  A    between atoms: _157  and  _159
REMARK   58  A    between atoms: _159  and  _160
REMARK   59  A    between atoms: _159  and  _162
REMARK   60  A    between atoms: _162  and  _163
REMARK   61  A    between atoms: _168  and  _170
REMARK   62  A    between atoms: _170  and  _171
REMARK   63  A    between atoms: _170  and  _173
REMARK   64  A    between atoms: _173  and  _174
REMARK   65  A    between atoms: _180  and  _182
REMARK   66  A    between atoms: _182  and  _183
REMARK   67  A    between atoms: _182  and  _185
REMARK   68  A    between atoms: _185  and  _186
REMARK   69  A    between atoms: _191  and  _193
REMARK   70  A    between atoms: _193  and  _194
REMARK   71  A    between atoms: _196  and  _198
REMARK   72  A    between atoms: _198  and  _199
REMARK   73  A    between atoms: _198  and  _201
REMARK   74  A    between atoms: _201  and  _202
REMARK   75  A    between atoms: _202  and  _203
REMARK   76  A    between atoms: _206  and  _208
REMARK   77  A    between atoms: _208  and  _209
REMARK   78  A    between atoms: _208  and  _211
REMARK   79  A    between atoms: _211  and  _212
REMARK   80  A    between atoms: _212  and  _213
REMARK   81  A    between atoms: _217  and  _218
REMARK   82  A    between atoms: _223  and  _225
REMARK   83  A    between atoms: _225  and  _226
REMARK   84  A    between atoms: _225  and  _228
REMARK   85  A    between atoms: _228  and  _229
REMARK   86  A    between atoms: _229  and  _230
REMARK   87  A    between atoms: _233  and  _235
REMARK   88  A    between atoms: _235  and  _236
REMARK   89  A    between atoms: _235  and  _238
REMARK   90  A    between atoms: _238  and  _239
REMARK   91  A    between atoms: _239  and  _240
REMARK   92  A    between atoms: _243  and  _245
REMARK   93  A    between atoms: _245  and  _246
REMARK   94  A    between atoms: _245  and  _248
REMARK   95  A    between atoms: _248  and  _249
REMARK   96  A    between atoms: _252  and  _254
REMARK   97  A    between atoms: _254  and  _255
REMARK   98  A    between atoms: _254  and  _257
REMARK   99  A    between atoms: _257  and  _258
REMARK  100  A    between atoms: _258  and  _259
REMARK  101  A    between atoms: _261  and  _263
REMARK  102  A    between atoms: _263  and  _264
REMARK  103  A    between atoms: _263  and  _266
REMARK  104  A    between atoms: _269  and  _271
REMARK  105  A    between atoms: _271  and  _272
REMARK  106  A    between atoms: _271  and  _274
REMARK  107  A    between atoms: _274  and  _275
REMARK  108  A    between atoms: _278  and  _280
REMARK  109  A    between atoms: _280  and  _281
REMARK  110  A    between atoms: _280  and  _283
REMARK  111  A    between atoms: _283  and  _284
REMARK                            x       y       z     vdW  Elec       q    Type
REMARK                         _______ _______ _______ _____ _____    ______ ____
ROOT
ATOM      1  O   HOH     1       3.112 -14.235  12.191  0.00  0.00    +0.000 OA
ENDROOT
TORSDOF 0
REMARK  Name = ../refined-set-2016/4qy3/4qy3_pocket.pdb
REMARK  111 active torsions:
REMARK  status: ('A' for Active; 'I' for Inactive)
REMARK    1  A    between atoms: _1  and  _5
REMARK    2  A    between atoms: _5  and  _6
REMARK    3  A    between atoms: _5  and  _8
REMARK    4  A    between atoms: _8  and  _9
REMARK    5  A    between atoms: _14  and  _16
REMARK    6  A    between atoms: _16  and  _17
REMARK    7  A    between atoms: _16  and  _19
REMARK    8  A    between atoms: _19  and  _20
REMARK    9  A    between atoms: _30  and  _32
REMARK   10  A    between atoms: _32  and  _33
REMARK   11  A    between atoms: _35  and  _37
REMARK   12  A    between atoms: _37  and  _38
REMARK   13  A    between atoms: _37  and  _40
REMARK   14  A    between atoms: _40  and  _41
REMARK   15  A    between atoms: _46  and  _47
REMARK   16  A    between atoms: _49  and  _51
REMARK   17  A    between atoms: _51  and  _52
REMARK   18  A    between atoms: _54  and  _56
REMARK   19  A    between atoms: _56  and  _57
REMARK   20  A    between atoms: _56  and  _59
REMARK   21  A    between atoms: _59  and  _60
REMARK   22  A    between atoms: _60  and  _61
REMARK   23  A    between atoms: _61  and  _62
REMARK   24  A    between atoms: _62  and  _63
REMARK   25  A    between atoms: _67  and  _69
REMARK   26  A    between atoms: _69  and  _70
REMARK   27  A    between atoms: _69  and  _72
REMARK   28  A    between atoms: _72  and  _73
REMARK   29  A    between atoms: _78  and  _80
REMARK   30  A    between atoms: _80  and  _81
REMARK   31  A    between atoms: _80  and  _83
REMARK   32  A    between atoms: _83  and  _84
REMARK   33  A    between atoms: _89  and  _91
REMARK   34  A    between atoms: _91  and  _92
REMARK   35  A    between atoms: _95  and  _96
REMARK   36  A    between atoms: _101  and  _103
REMARK   37  A    between atoms: _103  and  _104
REMARK   38  A    between atoms: _103  and  _106
REMARK   39  A    between atoms: _106  and  _107
REMARK   40  A    between atoms: _117  and  _119
REMARK   41  A    between atoms: _119  and  _120
REMARK   42  A    between atoms: _119  and  _122
REMARK   43  A    between atoms: _122  and  _123
REMARK   44  A    between atoms: _128  and  _130
REMARK   45  A    between atoms: _130  and  _131
REMARK   46  A    between atoms: _133  and  _135
REMARK   47  A    between atoms: _135  and  _136
REMARK   48  A    between atoms: _135  and  _138
REMARK   49  A    between atoms: _138  and  _139
REMARK   50  A    between atoms: _144  and  _146
REMARK   51  A    between atoms: _146  and  _147
REMARK   52  A    between atoms: _146  and  _149
REMARK   53  A    between atoms: _149  and  _150
REMARK   54  A    between atoms: _150  and  _151
REMARK   55  A    between atoms: _151  and  _152
REMARK   56  A    between atoms: _152  and  _153
REMARK   57  A    between atoms: _157  and  _159
REMARK   58  A    between atoms: _159  and  _160
REMARK   59  A    between atoms: _159  and  _162
REMARK   60  A    between atoms: _162  and  _163
REMARK   61  A    between atoms: _168  and  _170
REMARK   62  A    between atoms: _170  and  _171
REMARK   63  A    between atoms: _170  and  _173
REMARK   64  A    between atoms: _173  and  _174
REMARK   65  A    between atoms: _180  and  _182
REMARK   66  A    between atoms: _182  and  _183
REMARK   67  A    between atoms: _182  and  _185
REMARK   68  A    between atoms: _185  and  _186
REMARK   69  A    between atoms: _191  and  _193
REMARK   70  A    between atoms: _193  and  _194
REMARK   71  A    between atoms: _196  and  _198
REMARK   72  A    between atoms: _198  and  _199
REMARK   73  A    between atoms: _198  and  _201
REMARK   74  A    between atoms: _201  and  _202
REMARK   75  A    between atoms: _202  and  _203
REMARK   76  A    between atoms: _206  and  _208
REMARK   77  A    between atoms: _208  and  _209
REMARK   78  A    between atoms: _208  and  _211
REMARK   79  A    between atoms: _211  and  _212
REMARK   80  A    between atoms: _212  and  _213
REMARK   81  A    between atoms: _217  and  _218
REMARK   82  A    between atoms: _223  and  _225
REMARK   83  A    between atoms: _225  and  _226
REMARK   84  A    between atoms: _225  and  _228
REMARK   85  A    between atoms: _228  and  _229
REMARK   86  A    between atoms: _229  and  _230
REMARK   87  A    between atoms: _233  and  _235
REMARK   88  A    between atoms: _235  and  _236
REMARK   89  A    between atoms: _235  and  _238
REMARK   90  A    between atoms: _238  and  _239
REMARK   91  A    between atoms: _239  and  _240
REMARK   92  A    between atoms: _243  and  _245
REMARK   93  A    between atoms: _245  and  _246
REMARK   94  A    between atoms: _245  and  _248
REMARK   95  A    between atoms: _248  and  _249
REMARK   96  A    between atoms: _252  and  _254
REMARK   97  A    between atoms: _254  and  _255
REMARK   98  A    between atoms: _254  and  _257
REMARK   99  A    between atoms: _257  and  _258
REMARK  100  A    between atoms: _258  and  _259
REMARK  101  A    between atoms: _261  and  _263
REMARK  102  A    between atoms: _263  and  _264
REMARK  103  A    between atoms: _263  and  _266
REMARK  104  A    between atoms: _269  and  _271
REMARK  105  A    between atoms: _271  and  _272
REMARK  106  A    between atoms: _271  and  _274
REMARK  107  A    between atoms: _274  and  _275
REMARK  108  A    between atoms: _278  and  _280
REMARK  109  A    between atoms: _280  and  _281
REMARK  110  A    between atoms: _280  and  _283
REMARK  111  A    between atoms: _283  and  _284
REMARK                            x       y       z     vdW  Elec       q    Type
REMARK                         _______ _______ _______ _____ _____    ______ ____
ROOT
ATOM      1  O   HOH     1       4.829 -15.387   2.881  0.00  0.00    +0.000 OA
ENDROOT
TORSDOF 0
REMARK  Name = ../refined-set-2016/4qy3/4qy3_pocket.pdb
REMARK  111 active torsions:
REMARK  status: ('A' for Active; 'I' for Inactive)
REMARK    1  A    between atoms: _1  and  _5
REMARK    2  A    between atoms: _5  and  _6
REMARK    3  A    between atoms: _5  and  _8
REMARK    4  A    between atoms: _8  and  _9
REMARK    5  A    between atoms: _14  and  _16
REMARK    6  A    between atoms: _16  and  _17
REMARK    7  A    between atoms: _16  and  _19
REMARK    8  A    between atoms: _19  and  _20
REMARK    9  A    between atoms: _30  and  _32
REMARK   10  A    between atoms: _32  and  _33
REMARK   11  A    between atoms: _35  and  _37
REMARK   12  A    between atoms: _37  and  _38
REMARK   13  A    between atoms: _37  and  _40
REMARK   14  A    between atoms: _40  and  _41
REMARK   15  A    between atoms: _46  and  _47
REMARK   16  A    between atoms: _49  and  _51
REMARK   17  A    between atoms: _51  and  _52
REMARK   18  A    between atoms: _54  and  _56
REMARK   19  A    between atoms: _56  and  _57
REMARK   20  A    between atoms: _56  and  _59
REMARK   21  A    between atoms: _59  and  _60
REMARK   22  A    between atoms: _60  and  _61
REMARK   23  A    between atoms: _61  and  _62
REMARK   24  A    between atoms: _62  and  _63
REMARK   25  A    between atoms: _67  and  _69
REMARK   26  A    between atoms: _69  and  _70
REMARK   27  A    between atoms: _69  and  _72
REMARK   28  A    between atoms: _72  and  _73
REMARK   29  A    between atoms: _78  and  _80
REMARK   30  A    between atoms: _80  and  _81
REMARK   31  A    between atoms: _80  and  _83
REMARK   32  A    between atoms: _83  and  _84
REMARK   33  A    between atoms: _89  and  _91
REMARK   34  A    between atoms: _91  and  _92
REMARK   35  A    between atoms: _95  and  _96
REMARK   36  A    between atoms: _101  and  _103
REMARK   37  A    between atoms: _103  and  _104
REMARK   38  A    between atoms: _103  and  _106
REMARK   39  A    between atoms: _106  and  _107
REMARK   40  A    between atoms: _117  and  _119
REMARK   41  A    between atoms: _119  and  _120
REMARK   42  A    between atoms: _119  and  _122
REMARK   43  A    between atoms: _122  and  _123
REMARK   44  A    between atoms: _128  and  _130
REMARK   45  A    between atoms: _130  and  _131
REMARK   46  A    between atoms: _133  and  _135
REMARK   47  A    between atoms: _135  and  _136
REMARK   48  A    between atoms: _135  and  _138
REMARK   49  A    between atoms: _138  and  _139
REMARK   50  A    between atoms: _144  and  _146
REMARK   51  A    between atoms: _146  and  _147
REMARK   52  A    between atoms: _146  and  _149
REMARK   53  A    between atoms: _149  and  _150
REMARK   54  A    between atoms: _150  and  _151
REMARK   55  A    between atoms: _151  and  _152
REMARK   56  A    between atoms: _152  and  _153
REMARK   57  A    between atoms: _157  and  _159
REMARK   58  A    between atoms: _159  and  _160
REMARK   59  A    between atoms: _159  and  _162
REMARK   60  A    between atoms: _162  and  _163
REMARK   61  A    between atoms: _168  and  _170
REMARK   62  A    between atoms: _170  and  _171
REMARK   63  A    between atoms: _170  and  _173
REMARK   64  A    between atoms: _173  and  _174
REMARK   65  A    between atoms: _180  and  _182
REMARK   66  A    between atoms: _182  and  _183
REMARK   67  A    between atoms: _182  and  _185
REMARK   68  A    between atoms: _185  and  _186
REMARK   69  A    between atoms: _191  and  _193
REMARK   70  A    between atoms: _193  and  _194
REMARK   71  A    between atoms: _196  and  _198
REMARK   72  A    between atoms: _198  and  _199
REMARK   73  A    between atoms: _198  and  _201
REMARK   74  A    between atoms: _201  and  _202
REMARK   75  A    between atoms: _202  and  _203
REMARK   76  A    between atoms: _206  and  _208
REMARK   77  A    between atoms: _208  and  _209
REMARK   78  A    between atoms: _208  and  _211
REMARK   79  A    between atoms: _211  and  _212
REMARK   80  A    between atoms: _212  and  _213
REMARK   81  A    between atoms: _217  and  _218
REMARK   82  A    between atoms: _223  and  _225
REMARK   83  A    between atoms: _225  and  _226
REMARK   84  A    between atoms: _225  and  _228
REMARK   85  A    between atoms: _228  and  _229
REMARK   86  A    between atoms: _229  and  _230
REMARK   87  A    between atoms: _233  and  _235
REMARK   88  A    between atoms: _235  and  _236
REMARK   89  A    between atoms: _235  and  _238
REMARK   90  A    between atoms: _238  and  _239
REMARK   91  A    between atoms: _239  and  _240
REMARK   92  A    between atoms: _243  and  _245
REMARK   93  A    between atoms: _245  and  _246
REMARK   94  A    between atoms: _245  and  _248
REMARK   95  A    between atoms: _248  and  _249
REMARK   96  A    between atoms: _252  and  _254
REMARK   97  A    between atoms: _254  and  _255
REMARK   98  A    between atoms: _254  and  _257
REMARK   99  A    between atoms: _257  and  _258
REMARK  100  A    between atoms: _258  and  _259
REMARK  101  A    between atoms: _261  and  _263
REMARK  102  A    between atoms: _263  and  _264
REMARK  103  A    between atoms: _263  and  _266
REMARK  104  A    between atoms: _269  and  _271
REMARK  105  A    between atoms: _271  and  _272
REMARK  106  A    between atoms: _271  and  _274
REMARK  107  A    between atoms: _274  and  _275
REMARK  108  A    between atoms: _278  and  _280
REMARK  109  A    between atoms: _280  and  _281
REMARK  110  A    between atoms: _280  and  _283
REMARK  111  A    between atoms: _283  and  _284
REMARK                            x       y       z     vdW  Elec       q    Type
REMARK                         _______ _______ _______ _____ _____    ______ ____
ROOT
ATOM      1  O   HOH     1       4.188 -10.383  14.261  0.00  0.00    +0.000 OA
ENDROOT
TORSDOF 0
REMARK  Name = ../refined-set-2016/4qy3/4qy3_pocket.pdb
REMARK  111 active torsions:
REMARK  status: ('A' for Active; 'I' for Inactive)
REMARK    1  A    between atoms: _1  and  _5
REMARK    2  A    between atoms: _5  and  _6
REMARK    3  A    between atoms: _5  and  _8
REMARK    4  A    between atoms: _8  and  _9
REMARK    5  A    between atoms: _14  and  _16
REMARK    6  A    between atoms: _16  and  _17
REMARK    7  A    between atoms: _16  and  _19
REMARK    8  A    between atoms: _19  and  _20
REMARK    9  A    between atoms: _30  and  _32
REMARK   10  A    between atoms: _32  and  _33
REMARK   11  A    between atoms: _35  and  _37
REMARK   12  A    between atoms: _37  and  _38
REMARK   13  A    between atoms: _37  and  _40
REMARK   14  A    between atoms: _40  and  _41
REMARK   15  A    between atoms: _46  and  _47
REMARK   16  A    between atoms: _49  and  _51
REMARK   17  A    between atoms: _51  and  _52
REMARK   18  A    between atoms: _54  and  _56
REMARK   19  A    between atoms: _56  and  _57
REMARK   20  A    between atoms: _56  and  _59
REMARK   21  A    between atoms: _59  and  _60
REMARK   22  A    between atoms: _60  and  _61
REMARK   23  A    between atoms: _61  and  _62
REMARK   24  A    between atoms: _62  and  _63
REMARK   25  A    between atoms: _67  and  _69
REMARK   26  A    between atoms: _69  and  _70
REMARK   27  A    between atoms: _69  and  _72
REMARK   28  A    between atoms: _72  and  _73
REMARK   29  A    between atoms: _78  and  _80
REMARK   30  A    between atoms: _80  and  _81
REMARK   31  A    between atoms: _80  and  _83
REMARK   32  A    between atoms: _83  and  _84
REMARK   33  A    between atoms: _89  and  _91
REMARK   34  A    between atoms: _91  and  _92
REMARK   35  A    between atoms: _95  and  _96
REMARK   36  A    between atoms: _101  and  _103
REMARK   37  A    between atoms: _103  and  _104
REMARK   38  A    between atoms: _103  and  _106
REMARK   39  A    between atoms: _106  and  _107
REMARK   40  A    between atoms: _117  and  _119
REMARK   41  A    between atoms: _119  and  _120
REMARK   42  A    between atoms: _119  and  _122
REMARK   43  A    between atoms: _122  and  _123
REMARK   44  A    between atoms: _128  and  _130
REMARK   45  A    between atoms: _130  and  _131
REMARK   46  A    between atoms: _133  and  _135
REMARK   47  A    between atoms: _135  and  _136
REMARK   48  A    between atoms: _135  and  _138
REMARK   49  A    between atoms: _138  and  _139
REMARK   50  A    between atoms: _144  and  _146
REMARK   51  A    between atoms: _146  and  _147
REMARK   52  A    between atoms: _146  and  _149
REMARK   53  A    between atoms: _149  and  _150
REMARK   54  A    between atoms: _150  and  _151
REMARK   55  A    between atoms: _151  and  _152
REMARK   56  A    between atoms: _152  and  _153
REMARK   57  A    between atoms: _157  and  _159
REMARK   58  A    between atoms: _159  and  _160
REMARK   59  A    between atoms: _159  and  _162
REMARK   60  A    between atoms: _162  and  _163
REMARK   61  A    between atoms: _168  and  _170
REMARK   62  A    between atoms: _170  and  _171
REMARK   63  A    between atoms: _170  and  _173
REMARK   64  A    between atoms: _173  and  _174
REMARK   65  A    between atoms: _180  and  _182
REMARK   66  A    between atoms: _182  and  _183
REMARK   67  A    between atoms: _182  and  _185
REMARK   68  A    between atoms: _185  and  _186
REMARK   69  A    between atoms: _191  and  _193
REMARK   70  A    between atoms: _193  and  _194
REMARK   71  A    between atoms: _196  and  _198
REMARK   72  A    between atoms: _198  and  _199
REMARK   73  A    between atoms: _198  and  _201
REMARK   74  A    between atoms: _201  and  _202
REMARK   75  A    between atoms: _202  and  _203
REMARK   76  A    between atoms: _206  and  _208
REMARK   77  A    between atoms: _208  and  _209
REMARK   78  A    between atoms: _208  and  _211
REMARK   79  A    between atoms: _211  and  _212
REMARK   80  A    between atoms: _212  and  _213
REMARK   81  A    between atoms: _217  and  _218
REMARK   82  A    between atoms: _223  and  _225
REMARK   83  A    between atoms: _225  and  _226
REMARK   84  A    between atoms: _225  and  _228
REMARK   85  A    between atoms: _228  and  _229
REMARK   86  A    between atoms: _229  and  _230
REMARK   87  A    between atoms: _233  and  _235
REMARK   88  A    between atoms: _235  and  _236
REMARK   89  A    between atoms: _235  and  _238
REMARK   90  A    between atoms: _238  and  _239
REMARK   91  A    between atoms: _239  and  _240
REMARK   92  A    between atoms: _243  and  _245
REMARK   93  A    between atoms: _245  and  _246
REMARK   94  A    between atoms: _245  and  _248
REMARK   95  A    between atoms: _248  and  _249
REMARK   96  A    between atoms: _252  and  _254
REMARK   97  A    between atoms: _254  and  _255
REMARK   98  A    between atoms: _254  and  _257
REMARK   99  A    between atoms: _257  and  _258
REMARK  100  A    between atoms: _258  and  _259
REMARK  101  A    between atoms: _261  and  _263
REMARK  102  A    between atoms: _263  and  _264
REMARK  103  A    between atoms: _263  and  _266
REMARK  104  A    between atoms: _269  and  _271
REMARK  105  A    between atoms: _271  and  _272
REMARK  106  A    between atoms: _271  and  _274
REMARK  107  A    between atoms: _274  and  _275
REMARK  108  A    between atoms: _278  and  _280
REMARK  109  A    between atoms: _280  and  _281
REMARK  110  A    between atoms: _280  and  _283
REMARK  111  A    between atoms: _283  and  _284
REMARK                            x       y       z     vdW  Elec       q    Type
REMARK                         _______ _______ _______ _____ _____    ______ ____
ROOT
ATOM      1  O   HOH     1      10.592  -8.107   7.017  0.00  0.00    +0.000 OA
ENDROOT
TORSDOF 0
REMARK  Name = ../refined-set-2016/4qy3/4qy3_pocket.pdb
REMARK  111 active torsions:
REMARK  status: ('A' for Active; 'I' for Inactive)
REMARK    1  A    between atoms: _1  and  _5
REMARK    2  A    between atoms: _5  and  _6
REMARK    3  A    between atoms: _5  and  _8
REMARK    4  A    between atoms: _8  and  _9
REMARK    5  A    between atoms: _14  and  _16
REMARK    6  A    between atoms: _16  and  _17
REMARK    7  A    between atoms: _16  and  _19
REMARK    8  A    between atoms: _19  and  _20
REMARK    9  A    between atoms: _30  and  _32
REMARK   10  A    between atoms: _32  and  _33
REMARK   11  A    between atoms: _35  and  _37
REMARK   12  A    between atoms: _37  and  _38
REMARK   13  A    between atoms: _37  and  _40
REMARK   14  A    between atoms: _40  and  _41
REMARK   15  A    between atoms: _46  and  _47
REMARK   16  A    between atoms: _49  and  _51
REMARK   17  A    between atoms: _51  and  _52
REMARK   18  A    between atoms: _54  and  _56
REMARK   19  A    between atoms: _56  and  _57
REMARK   20  A    between atoms: _56  and  _59
REMARK   21  A    between atoms: _59  and  _60
REMARK   22  A    between atoms: _60  and  _61
REMARK   23  A    between atoms: _61  and  _62
REMARK   24  A    between atoms: _62  and  _63
REMARK   25  A    between atoms: _67  and  _69
REMARK   26  A    between atoms: _69  and  _70
REMARK   27  A    between atoms: _69  and  _72
REMARK   28  A    between atoms: _72  and  _73
REMARK   29  A    between atoms: _78  and  _80
REMARK   30  A    between atoms: _80  and  _81
REMARK   31  A    between atoms: _80  and  _83
REMARK   32  A    between atoms: _83  and  _84
REMARK   33  A    between atoms: _89  and  _91
REMARK   34  A    between atoms: _91  and  _92
REMARK   35  A    between atoms: _95  and  _96
REMARK   36  A    between atoms: _101  and  _103
REMARK   37  A    between atoms: _103  and  _104
REMARK   38  A    between atoms: _103  and  _106
REMARK   39  A    between atoms: _106  and  _107
REMARK   40  A    between atoms: _117  and  _119
REMARK   41  A    between atoms: _119  and  _120
REMARK   42  A    between atoms: _119  and  _122
REMARK   43  A    between atoms: _122  and  _123
REMARK   44  A    between atoms: _128  and  _130
REMARK   45  A    between atoms: _130  and  _131
REMARK   46  A    between atoms: _133  and  _135
REMARK   47  A    between atoms: _135  and  _136
REMARK   48  A    between atoms: _135  and  _138
REMARK   49  A    between atoms: _138  and  _139
REMARK   50  A    between atoms: _144  and  _146
REMARK   51  A    between atoms: _146  and  _147
REMARK   52  A    between atoms: _146  and  _149
REMARK   53  A    between atoms: _149  and  _150
REMARK   54  A    between atoms: _150  and  _151
REMARK   55  A    between atoms: _151  and  _152
REMARK   56  A    between atoms: _152  and  _153
REMARK   57  A    between atoms: _157  and  _159
REMARK   58  A    between atoms: _159  and  _160
REMARK   59  A    between atoms: _159  and  _162
REMARK   60  A    between atoms: _162  and  _163
REMARK   61  A    between atoms: _168  and  _170
REMARK   62  A    between atoms: _170  and  _171
REMARK   63  A    between atoms: _170  and  _173
REMARK   64  A    between atoms: _173  and  _174
REMARK   65  A    between atoms: _180  and  _182
REMARK   66  A    between atoms: _182  and  _183
REMARK   67  A    between atoms: _182  and  _185
REMARK   68  A    between atoms: _185  and  _186
REMARK   69  A    between atoms: _191  and  _193
REMARK   70  A    between atoms: _193  and  _194
REMARK   71  A    between atoms: _196  and  _198
REMARK   72  A    between atoms: _198  and  _199
REMARK   73  A    between atoms: _198  and  _201
REMARK   74  A    between atoms: _201  and  _202
REMARK   75  A    between atoms: _202  and  _203
REMARK   76  A    between atoms: _206  and  _208
REMARK   77  A    between atoms: _208  and  _209
REMARK   78  A    between atoms: _208  and  _211
REMARK   79  A    between atoms: _211  and  _212
REMARK   80  A    between atoms: _212  and  _213
REMARK   81  A    between atoms: _217  and  _218
REMARK   82  A    between atoms: _223  and  _225
REMARK   83  A    between atoms: _225  and  _226
REMARK   84  A    between atoms: _225  and  _228
REMARK   85  A    between atoms: _228  and  _229
REMARK   86  A    between atoms: _229  and  _230
REMARK   87  A    between atoms: _233  and  _235
REMARK   88  A    between atoms: _235  and  _236
REMARK   89  A    between atoms: _235  and  _238
REMARK   90  A    between atoms: _238  and  _239
REMARK   91  A    between atoms: _239  and  _240
REMARK   92  A    between atoms: _243  and  _245
REMARK   93  A    between atoms: _245  and  _246
REMARK   94  A    between atoms: _245  and  _248
REMARK   95  A    between atoms: _248  and  _249
REMARK   96  A    between atoms: _252  and  _254
REMARK   97  A    between atoms: _254  and  _255
REMARK   98  A    between atoms: _254  and  _257
REMARK   99  A    between atoms: _257  and  _258
REMARK  100  A    between atoms: _258  and  _259
REMARK  101  A    between atoms: _261  and  _263
REMARK  102  A    between atoms: _263  and  _264
REMARK  103  A    between atoms: _263  and  _266
REMARK  104  A    between atoms: _269  and  _271
REMARK  105  A    between atoms: _271  and  _272
REMARK  106  A    between atoms: _271  and  _274
REMARK  107  A    between atoms: _274  and  _275
REMARK  108  A    between atoms: _278  and  _280
REMARK  109  A    between atoms: _280  and  _281
REMARK  110  A    between atoms: _280  and  _283
REMARK  111  A    between atoms: _283  and  _284
REMARK                            x       y       z     vdW  Elec       q    Type
REMARK                         _______ _______ _______ _____ _____    ______ ____
ROOT
ATOM      1  O   HOH     1       3.209   2.152   7.503  0.00  0.00    +0.000 OA
ENDROOT
TORSDOF 0
REMARK  Name = ../refined-set-2016/4qy3/4qy3_pocket.pdb
REMARK  111 active torsions:
REMARK  status: ('A' for Active; 'I' for Inactive)
REMARK    1  A    between atoms: _1  and  _5
REMARK    2  A    between atoms: _5  and  _6
REMARK    3  A    between atoms: _5  and  _8
REMARK    4  A    between atoms: _8  and  _9
REMARK    5  A    between atoms: _14  and  _16
REMARK    6  A    between atoms: _16  and  _17
REMARK    7  A    between atoms: _16  and  _19
REMARK    8  A    between atoms: _19  and  _20
REMARK    9  A    between atoms: _30  and  _32
REMARK   10  A    between atoms: _32  and  _33
REMARK   11  A    between atoms: _35  and  _37
REMARK   12  A    between atoms: _37  and  _38
REMARK   13  A    between atoms: _37  and  _40
REMARK   14  A    between atoms: _40  and  _41
REMARK   15  A    between atoms: _46  and  _47
REMARK   16  A    between atoms: _49  and  _51
REMARK   17  A    between atoms: _51  and  _52
REMARK   18  A    between atoms: _54  and  _56
REMARK   19  A    between atoms: _56  and  _57
REMARK   20  A    between atoms: _56  and  _59
REMARK   21  A    between atoms: _59  and  _60
REMARK   22  A    between atoms: _60  and  _61
REMARK   23  A    between atoms: _61  and  _62
REMARK   24  A    between atoms: _62  and  _63
REMARK   25  A    between atoms: _67  and  _69
REMARK   26  A    between atoms: _69  and  _70
REMARK   27  A    between atoms: _69  and  _72
REMARK   28  A    between atoms: _72  and  _73
REMARK   29  A    between atoms: _78  and  _80
REMARK   30  A    between atoms: _80  and  _81
REMARK   31  A    between atoms: _80  and  _83
REMARK   32  A    between atoms: _83  and  _84
REMARK   33  A    between atoms: _89  and  _91
REMARK   34  A    between atoms: _91  and  _92
REMARK   35  A    between atoms: _95  and  _96
REMARK   36  A    between atoms: _101  and  _103
REMARK   37  A    between atoms: _103  and  _104
REMARK   38  A    between atoms: _103  and  _106
REMARK   39  A    between atoms: _106  and  _107
REMARK   40  A    between atoms: _117  and  _119
REMARK   41  A    between atoms: _119  and  _120
REMARK   42  A    between atoms: _119  and  _122
REMARK   43  A    between atoms: _122  and  _123
REMARK   44  A    between atoms: _128  and  _130
REMARK   45  A    between atoms: _130  and  _131
REMARK   46  A    between atoms: _133  and  _135
REMARK   47  A    between atoms: _135  and  _136
REMARK   48  A    between atoms: _135  and  _138
REMARK   49  A    between atoms: _138  and  _139
REMARK   50  A    between atoms: _144  and  _146
REMARK   51  A    between atoms: _146  and  _147
REMARK   52  A    between atoms: _146  and  _149
REMARK   53  A    between atoms: _149  and  _150
REMARK   54  A    between atoms: _150  and  _151
REMARK   55  A    between atoms: _151  and  _152
REMARK   56  A    between atoms: _152  and  _153
REMARK   57  A    between atoms: _157  and  _159
REMARK   58  A    between atoms: _159  and  _160
REMARK   59  A    between atoms: _159  and  _162
REMARK   60  A    between atoms: _162  and  _163
REMARK   61  A    between atoms: _168  and  _170
REMARK   62  A    between atoms: _170  and  _171
REMARK   63  A    between atoms: _170  and  _173
REMARK   64  A    between atoms: _173  and  _174
REMARK   65  A    between atoms: _180  and  _182
REMARK   66  A    between atoms: _182  and  _183
REMARK   67  A    between atoms: _182  and  _185
REMARK   68  A    between atoms: _185  and  _186
REMARK   69  A    between atoms: _191  and  _193
REMARK   70  A    between atoms: _193  and  _194
REMARK   71  A    between atoms: _196  and  _198
REMARK   72  A    between atoms: _198  and  _199
REMARK   73  A    between atoms: _198  and  _201
REMARK   74  A    between atoms: _201  and  _202
REMARK   75  A    between atoms: _202  and  _203
REMARK   76  A    between atoms: _206  and  _208
REMARK   77  A    between atoms: _208  and  _209
REMARK   78  A    between atoms: _208  and  _211
REMARK   79  A    between atoms: _211  and  _212
REMARK   80  A    between atoms: _212  and  _213
REMARK   81  A    between atoms: _217  and  _218
REMARK   82  A    between atoms: _223  and  _225
REMARK   83  A    between atoms: _225  and  _226
REMARK   84  A    between atoms: _225  and  _228
REMARK   85  A    between atoms: _228  and  _229
REMARK   86  A    between atoms: _229  and  _230
REMARK   87  A    between atoms: _233  and  _235
REMARK   88  A    between atoms: _235  and  _236
REMARK   89  A    between atoms: _235  and  _238
REMARK   90  A    between atoms: _238  and  _239
REMARK   91  A    between atoms: _239  and  _240
REMARK   92  A    between atoms: _243  and  _245
REMARK   93  A    between atoms: _245  and  _246
REMARK   94  A    between atoms: _245  and  _248
REMARK   95  A    between atoms: _248  and  _249
REMARK   96  A    between atoms: _252  and  _254
REMARK   97  A    between atoms: _254  and  _255
REMARK   98  A    between atoms: _254  and  _257
REMARK   99  A    between atoms: _257  and  _258
REMARK  100  A    between atoms: _258  and  _259
REMARK  101  A    between atoms: _261  and  _263
REMARK  102  A    between atoms: _263  and  _264
REMARK  103  A    between atoms: _263  and  _266
REMARK  104  A    between atoms: _269  and  _271
REMARK  105  A    between atoms: _271  and  _272
REMARK  106  A    between atoms: _271  and  _274
REMARK  107  A    between atoms: _274  and  _275
REMARK  108  A    between atoms: _278  and  _280
REMARK  109  A    between atoms: _280  and  _281
REMARK  110  A    between atoms: _280  and  _283
REMARK  111  A    between atoms: _283  and  _284
REMARK                            x       y       z     vdW  Elec       q    Type
REMARK                         _______ _______ _______ _____ _____    ______ ____
ROOT
ATOM      1  O   HOH     1       2.547  -4.390   7.951  0.00  0.00    +0.000 OA
ENDROOT
TORSDOF 0
REMARK  Name = ../refined-set-2016/4qy3/4qy3_pocket.pdb
REMARK  111 active torsions:
REMARK  status: ('A' for Active; 'I' for Inactive)
REMARK    1  A    between atoms: _1  and  _5
REMARK    2  A    between atoms: _5  and  _6
REMARK    3  A    between atoms: _5  and  _8
REMARK    4  A    between atoms: _8  and  _9
REMARK    5  A    between atoms: _14  and  _16
REMARK    6  A    between atoms: _16  and  _17
REMARK    7  A    between atoms: _16  and  _19
REMARK    8  A    between atoms: _19  and  _20
REMARK    9  A    between atoms: _30  and  _32
REMARK   10  A    between atoms: _32  and  _33
REMARK   11  A    between atoms: _35  and  _37
REMARK   12  A    between atoms: _37  and  _38
REMARK   13  A    between atoms: _37  and  _40
REMARK   14  A    between atoms: _40  and  _41
REMARK   15  A    between atoms: _46  and  _47
REMARK   16  A    between atoms: _49  and  _51
REMARK   17  A    between atoms: _51  and  _52
REMARK   18  A    between atoms: _54  and  _56
REMARK   19  A    between atoms: _56  and  _57
REMARK   20  A    between atoms: _56  and  _59
REMARK   21  A    between atoms: _59  and  _60
REMARK   22  A    between atoms: _60  and  _61
REMARK   23  A    between atoms: _61  and  _62
REMARK   24  A    between atoms: _62  and  _63
REMARK   25  A    between atoms: _67  and  _69
REMARK   26  A    between atoms: _69  and  _70
REMARK   27  A    between atoms: _69  and  _72
REMARK   28  A    between atoms: _72  and  _73
REMARK   29  A    between atoms: _78  and  _80
REMARK   30  A    between atoms: _80  and  _81
REMARK   31  A    between atoms: _80  and  _83
REMARK   32  A    between atoms: _83  and  _84
REMARK   33  A    between atoms: _89  and  _91
REMARK   34  A    between atoms: _91  and  _92
REMARK   35  A    between atoms: _95  and  _96
REMARK   36  A    between atoms: _101  and  _103
REMARK   37  A    between atoms: _103  and  _104
REMARK   38  A    between atoms: _103  and  _106
REMARK   39  A    between atoms: _106  and  _107
REMARK   40  A    between atoms: _117  and  _119
REMARK   41  A    between atoms: _119  and  _120
REMARK   42  A    between atoms: _119  and  _122
REMARK   43  A    between atoms: _122  and  _123
REMARK   44  A    between atoms: _128  and  _130
REMARK   45  A    between atoms: _130  and  _131
REMARK   46  A    between atoms: _133  and  _135
REMARK   47  A    between atoms: _135  and  _136
REMARK   48  A    between atoms: _135  and  _138
REMARK   49  A    between atoms: _138  and  _139
REMARK   50  A    between atoms: _144  and  _146
REMARK   51  A    between atoms: _146  and  _147
REMARK   52  A    between atoms: _146  and  _149
REMARK   53  A    between atoms: _149  and  _150
REMARK   54  A    between atoms: _150  and  _151
REMARK   55  A    between atoms: _151  and  _152
REMARK   56  A    between atoms: _152  and  _153
REMARK   57  A    between atoms: _157  and  _159
REMARK   58  A    between atoms: _159  and  _160
REMARK   59  A    between atoms: _159  and  _162
REMARK   60  A    between atoms: _162  and  _163
REMARK   61  A    between atoms: _168  and  _170
REMARK   62  A    between atoms: _170  and  _171
REMARK   63  A    between atoms: _170  and  _173
REMARK   64  A    between atoms: _173  and  _174
REMARK   65  A    between atoms: _180  and  _182
REMARK   66  A    between atoms: _182  and  _183
REMARK   67  A    between atoms: _182  and  _185
REMARK   68  A    between atoms: _185  and  _186
REMARK   69  A    between atoms: _191  and  _193
REMARK   70  A    between atoms: _193  and  _194
REMARK   71  A    between atoms: _196  and  _198
REMARK   72  A    between atoms: _198  and  _199
REMARK   73  A    between atoms: _198  and  _201
REMARK   74  A    between atoms: _201  and  _202
REMARK   75  A    between atoms: _202  and  _203
REMARK   76  A    between atoms: _206  and  _208
REMARK   77  A    between atoms: _208  and  _209
REMARK   78  A    between atoms: _208  and  _211
REMARK   79  A    between atoms: _211  and  _212
REMARK   80  A    between atoms: _212  and  _213
REMARK   81  A    between atoms: _217  and  _218
REMARK   82  A    between atoms: _223  and  _225
REMARK   83  A    between atoms: _225  and  _226
REMARK   84  A    between atoms: _225  and  _228
REMARK   85  A    between atoms: _228  and  _229
REMARK   86  A    between atoms: _229  and  _230
REMARK   87  A    between atoms: _233  and  _235
REMARK   88  A    between atoms: _235  and  _236
REMARK   89  A    between atoms: _235  and  _238
REMARK   90  A    between atoms: _238  and  _239
REMARK   91  A    between atoms: _239  and  _240
REMARK   92  A    between atoms: _243  and  _245
REMARK   93  A    between atoms: _245  and  _246
REMARK   94  A    between atoms: _245  and  _248
REMARK   95  A    between atoms: _248  and  _249
REMARK   96  A    between atoms: _252  and  _254
REMARK   97  A    between atoms: _254  and  _255
REMARK   98  A    between atoms: _254  and  _257
REMARK   99  A    between atoms: _257  and  _258
REMARK  100  A    between atoms: _258  and  _259
REMARK  101  A    between atoms: _261  and  _263
REMARK  102  A    between atoms: _263  and  _264
REMARK  103  A    between atoms: _263  and  _266
REMARK  104  A    between atoms: _269  and  _271
REMARK  105  A    between atoms: _271  and  _272
REMARK  106  A    between atoms: _271  and  _274
REMARK  107  A    between atoms: _274  and  _275
REMARK  108  A    between atoms: _278  and  _280
REMARK  109  A    between atoms: _280  and  _281
REMARK  110  A    between atoms: _280  and  _283
REMARK  111  A    between atoms: _283  and  _284
REMARK                            x       y       z     vdW  Elec       q    Type
REMARK                         _______ _______ _______ _____ _____    ______ ____
ROOT
ATOM      1  O   HOH     1       5.632  -3.315   6.807  0.00  0.00    +0.000 OA
ENDROOT
TORSDOF 0
REMARK  Name = ../refined-set-2016/4qy3/4qy3_pocket.pdb
REMARK  111 active torsions:
REMARK  status: ('A' for Active; 'I' for Inactive)
REMARK    1  A    between atoms: _1  and  _5
REMARK    2  A    between atoms: _5  and  _6
REMARK    3  A    between atoms: _5  and  _8
REMARK    4  A    between atoms: _8  and  _9
REMARK    5  A    between atoms: _14  and  _16
REMARK    6  A    between atoms: _16  and  _17
REMARK    7  A    between atoms: _16  and  _19
REMARK    8  A    between atoms: _19  and  _20
REMARK    9  A    between atoms: _30  and  _32
REMARK   10  A    between atoms: _32  and  _33
REMARK   11  A    between atoms: _35  and  _37
REMARK   12  A    between atoms: _37  and  _38
REMARK   13  A    between atoms: _37  and  _40
REMARK   14  A    between atoms: _40  and  _41
REMARK   15  A    between atoms: _46  and  _47
REMARK   16  A    between atoms: _49  and  _51
REMARK   17  A    between atoms: _51  and  _52
REMARK   18  A    between atoms: _54  and  _56
REMARK   19  A    between atoms: _56  and  _57
REMARK   20  A    between atoms: _56  and  _59
REMARK   21  A    between atoms: _59  and  _60
REMARK   22  A    between atoms: _60  and  _61
REMARK   23  A    between atoms: _61  and  _62
REMARK   24  A    between atoms: _62  and  _63
REMARK   25  A    between atoms: _67  and  _69
REMARK   26  A    between atoms: _69  and  _70
REMARK   27  A    between atoms: _69  and  _72
REMARK   28  A    between atoms: _72  and  _73
REMARK   29  A    between atoms: _78  and  _80
REMARK   30  A    between atoms: _80  and  _81
REMARK   31  A    between atoms: _80  and  _83
REMARK   32  A    between atoms: _83  and  _84
REMARK   33  A    between atoms: _89  and  _91
REMARK   34  A    between atoms: _91  and  _92
REMARK   35  A    between atoms: _95  and  _96
REMARK   36  A    between atoms: _101  and  _103
REMARK   37  A    between atoms: _103  and  _104
REMARK   38  A    between atoms: _103  and  _106
REMARK   39  A    between atoms: _106  and  _107
REMARK   40  A    between atoms: _117  and  _119
REMARK   41  A    between atoms: _119  and  _120
REMARK   42  A    between atoms: _119  and  _122
REMARK   43  A    between atoms: _122  and  _123
REMARK   44  A    between atoms: _128  and  _130
REMARK   45  A    between atoms: _130  and  _131
REMARK   46  A    between atoms: _133  and  _135
REMARK   47  A    between atoms: _135  and  _136
REMARK   48  A    between atoms: _135  and  _138
REMARK   49  A    between atoms: _138  and  _139
REMARK   50  A    between atoms: _144  and  _146
REMARK   51  A    between atoms: _146  and  _147
REMARK   52  A    between atoms: _146  and  _149
REMARK   53  A    between atoms: _149  and  _150
REMARK   54  A    between atoms: _150  and  _151
REMARK   55  A    between atoms: _151  and  _152
REMARK   56  A    between atoms: _152  and  _153
REMARK   57  A    between atoms: _157  and  _159
REMARK   58  A    between atoms: _159  and  _160
REMARK   59  A    between atoms: _159  and  _162
REMARK   60  A    between atoms: _162  and  _163
REMARK   61  A    between atoms: _168  and  _170
REMARK   62  A    between atoms: _170  and  _171
REMARK   63  A    between atoms: _170  and  _173
REMARK   64  A    between atoms: _173  and  _174
REMARK   65  A    between atoms: _180  and  _182
REMARK   66  A    between atoms: _182  and  _183
REMARK   67  A    between atoms: _182  and  _185
REMARK   68  A    between atoms: _185  and  _186
REMARK   69  A    between atoms: _191  and  _193
REMARK   70  A    between atoms: _193  and  _194
REMARK   71  A    between atoms: _196  and  _198
REMARK   72  A    between atoms: _198  and  _199
REMARK   73  A    between atoms: _198  and  _201
REMARK   74  A    between atoms: _201  and  _202
REMARK   75  A    between atoms: _202  and  _203
REMARK   76  A    between atoms: _206  and  _208
REMARK   77  A    between atoms: _208  and  _209
REMARK   78  A    between atoms: _208  and  _211
REMARK   79  A    between atoms: _211  and  _212
REMARK   80  A    between atoms: _212  and  _213
REMARK   81  A    between atoms: _217  and  _218
REMARK   82  A    between atoms: _223  and  _225
REMARK   83  A    between atoms: _225  and  _226
REMARK   84  A    between atoms: _225  and  _228
REMARK   85  A    between atoms: _228  and  _229
REMARK   86  A    between atoms: _229  and  _230
REMARK   87  A    between atoms: _233  and  _235
REMARK   88  A    between atoms: _235  and  _236
REMARK   89  A    between atoms: _235  and  _238
REMARK   90  A    between atoms: _238  and  _239
REMARK   91  A    between atoms: _239  and  _240
REMARK   92  A    between atoms: _243  and  _245
REMARK   93  A    between atoms: _245  and  _246
REMARK   94  A    between atoms: _245  and  _248
REMARK   95  A    between atoms: _248  and  _249
REMARK   96  A    between atoms: _252  and  _254
REMARK   97  A    between atoms: _254  and  _255
REMARK   98  A    between atoms: _254  and  _257
REMARK   99  A    between atoms: _257  and  _258
REMARK  100  A    between atoms: _258  and  _259
REMARK  101  A    between atoms: _261  and  _263
REMARK  102  A    between atoms: _263  and  _264
REMARK  103  A    between atoms: _263  and  _266
REMARK  104  A    between atoms: _269  and  _271
REMARK  105  A    between atoms: _271  and  _272
REMARK  106  A    between atoms: _271  and  _274
REMARK  107  A    between atoms: _274  and  _275
REMARK  108  A    between atoms: _278  and  _280
REMARK  109  A    between atoms: _280  and  _281
REMARK  110  A    between atoms: _280  and  _283
REMARK  111  A    between atoms: _283  and  _284
REMARK                            x       y       z     vdW  Elec       q    Type
REMARK                         _______ _______ _______ _____ _____    ______ ____
ROOT
ATOM      1  O   HOH     1       5.585 -14.182   8.544  0.00  0.00    +0.000 OA
ENDROOT
TORSDOF 0
REMARK  Name = ../refined-set-2016/4qy3/4qy3_pocket.pdb
REMARK  111 active torsions:
REMARK  status: ('A' for Active; 'I' for Inactive)
REMARK    1  A    between atoms: _1  and  _5
REMARK    2  A    between atoms: _5  and  _6
REMARK    3  A    between atoms: _5  and  _8
REMARK    4  A    between atoms: _8  and  _9
REMARK    5  A    between atoms: _14  and  _16
REMARK    6  A    between atoms: _16  and  _17
REMARK    7  A    between atoms: _16  and  _19
REMARK    8  A    between atoms: _19  and  _20
REMARK    9  A    between atoms: _30  and  _32
REMARK   10  A    between atoms: _32  and  _33
REMARK   11  A    between atoms: _35  and  _37
REMARK   12  A    between atoms: _37  and  _38
REMARK   13  A    between atoms: _37  and  _40
REMARK   14  A    between atoms: _40  and  _41
REMARK   15  A    between atoms: _46  and  _47
REMARK   16  A    between atoms: _49  and  _51
REMARK   17  A    between atoms: _51  and  _52
REMARK   18  A    between atoms: _54  and  _56
REMARK   19  A    between atoms: _56  and  _57
REMARK   20  A    between atoms: _56  and  _59
REMARK   21  A    between atoms: _59  and  _60
REMARK   22  A    between atoms: _60  and  _61
REMARK   23  A    between atoms: _61  and  _62
REMARK   24  A    between atoms: _62  and  _63
REMARK   25  A    between atoms: _67  and  _69
REMARK   26  A    between atoms: _69  and  _70
REMARK   27  A    between atoms: _69  and  _72
REMARK   28  A    between atoms: _72  and  _73
REMARK   29  A    between atoms: _78  and  _80
REMARK   30  A    between atoms: _80  and  _81
REMARK   31  A    between atoms: _80  and  _83
REMARK   32  A    between atoms: _83  and  _84
REMARK   33  A    between atoms: _89  and  _91
REMARK   34  A    between atoms: _91  and  _92
REMARK   35  A    between atoms: _95  and  _96
REMARK   36  A    between atoms: _101  and  _103
REMARK   37  A    between atoms: _103  and  _104
REMARK   38  A    between atoms: _103  and  _106
REMARK   39  A    between atoms: _106  and  _107
REMARK   40  A    between atoms: _117  and  _119
REMARK   41  A    between atoms: _119  and  _120
REMARK   42  A    between atoms: _119  and  _122
REMARK   43  A    between atoms: _122  and  _123
REMARK   44  A    between atoms: _128  and  _130
REMARK   45  A    between atoms: _130  and  _131
REMARK   46  A    between atoms: _133  and  _135
REMARK   47  A    between atoms: _135  and  _136
REMARK   48  A    between atoms: _135  and  _138
REMARK   49  A    between atoms: _138  and  _139
REMARK   50  A    between atoms: _144  and  _146
REMARK   51  A    between atoms: _146  and  _147
REMARK   52  A    between atoms: _146  and  _149
REMARK   53  A    between atoms: _149  and  _150
REMARK   54  A    between atoms: _150  and  _151
REMARK   55  A    between atoms: _151  and  _152
REMARK   56  A    between atoms: _152  and  _153
REMARK   57  A    between atoms: _157  and  _159
REMARK   58  A    between atoms: _159  and  _160
REMARK   59  A    between atoms: _159  and  _162
REMARK   60  A    between atoms: _162  and  _163
REMARK   61  A    between atoms: _168  and  _170
REMARK   62  A    between atoms: _170  and  _171
REMARK   63  A    between atoms: _170  and  _173
REMARK   64  A    between atoms: _173  and  _174
REMARK   65  A    between atoms: _180  and  _182
REMARK   66  A    between atoms: _182  and  _183
REMARK   67  A    between atoms: _182  and  _185
REMARK   68  A    between atoms: _185  and  _186
REMARK   69  A    between atoms: _191  and  _193
REMARK   70  A    between atoms: _193  and  _194
REMARK   71  A    between atoms: _196  and  _198
REMARK   72  A    between atoms: _198  and  _199
REMARK   73  A    between atoms: _198  and  _201
REMARK   74  A    between atoms: _201  and  _202
REMARK   75  A    between atoms: _202  and  _203
REMARK   76  A    between atoms: _206  and  _208
REMARK   77  A    between atoms: _208  and  _209
REMARK   78  A    between atoms: _208  and  _211
REMARK   79  A    between atoms: _211  and  _212
REMARK   80  A    between atoms: _212  and  _213
REMARK   81  A    between atoms: _217  and  _218
REMARK   82  A    between atoms: _223  and  _225
REMARK   83  A    between atoms: _225  and  _226
REMARK   84  A    between atoms: _225  and  _228
REMARK   85  A    between atoms: _228  and  _229
REMARK   86  A    between atoms: _229  and  _230
REMARK   87  A    between atoms: _233  and  _235
REMARK   88  A    between atoms: _235  and  _236
REMARK   89  A    between atoms: _235  and  _238
REMARK   90  A    between atoms: _238  and  _239
REMARK   91  A    between atoms: _239  and  _240
REMARK   92  A    between atoms: _243  and  _245
REMARK   93  A    between atoms: _245  and  _246
REMARK   94  A    between atoms: _245  and  _248
REMARK   95  A    between atoms: _248  and  _249
REMARK   96  A    between atoms: _252  and  _254
REMARK   97  A    between atoms: _254  and  _255
REMARK   98  A    between atoms: _254  and  _257
REMARK   99  A    between atoms: _257  and  _258
REMARK  100  A    between atoms: _258  and  _259
REMARK  101  A    between atoms: _261  and  _263
REMARK  102  A    between atoms: _263  and  _264
REMARK  103  A    between atoms: _263  and  _266
REMARK  104  A    between atoms: _269  and  _271
REMARK  105  A    between atoms: _271  and  _272
REMARK  106  A    between atoms: _271  and  _274
REMARK  107  A    between atoms: _274  and  _275
REMARK  108  A    between atoms: _278  and  _280
REMARK  109  A    between atoms: _280  and  _281
REMARK  110  A    between atoms: _280  and  _283
REMARK  111  A    between atoms: _283  and  _284
REMARK                            x       y       z     vdW  Elec       q    Type
REMARK                         _______ _______ _______ _____ _____    ______ ____
ROOT
ATOM      1  O   HOH     1       2.883   0.890  -2.058  0.00  0.00    +0.000 OA
ENDROOT
TORSDOF 0
REMARK  Name = ../refined-set-2016/4qy3/4qy3_pocket.pdb
REMARK  111 active torsions:
REMARK  status: ('A' for Active; 'I' for Inactive)
REMARK    1  A    between atoms: _1  and  _5
REMARK    2  A    between atoms: _5  and  _6
REMARK    3  A    between atoms: _5  and  _8
REMARK    4  A    between atoms: _8  and  _9
REMARK    5  A    between atoms: _14  and  _16
REMARK    6  A    between atoms: _16  and  _17
REMARK    7  A    between atoms: _16  and  _19
REMARK    8  A    between atoms: _19  and  _20
REMARK    9  A    between atoms: _30  and  _32
REMARK   10  A    between atoms: _32  and  _33
REMARK   11  A    between atoms: _35  and  _37
REMARK   12  A    between atoms: _37  and  _38
REMARK   13  A    between atoms: _37  and  _40
REMARK   14  A    between atoms: _40  and  _41
REMARK   15  A    between atoms: _46  and  _47
REMARK   16  A    between atoms: _49  and  _51
REMARK   17  A    between atoms: _51  and  _52
REMARK   18  A    between atoms: _54  and  _56
REMARK   19  A    between atoms: _56  and  _57
REMARK   20  A    between atoms: _56  and  _59
REMARK   21  A    between atoms: _59  and  _60
REMARK   22  A    between atoms: _60  and  _61
REMARK   23  A    between atoms: _61  and  _62
REMARK   24  A    between atoms: _62  and  _63
REMARK   25  A    between atoms: _67  and  _69
REMARK   26  A    between atoms: _69  and  _70
REMARK   27  A    between atoms: _69  and  _72
REMARK   28  A    between atoms: _72  and  _73
REMARK   29  A    between atoms: _78  and  _80
REMARK   30  A    between atoms: _80  and  _81
REMARK   31  A    between atoms: _80  and  _83
REMARK   32  A    between atoms: _83  and  _84
REMARK   33  A    between atoms: _89  and  _91
REMARK   34  A    between atoms: _91  and  _92
REMARK   35  A    between atoms: _95  and  _96
REMARK   36  A    between atoms: _101  and  _103
REMARK   37  A    between atoms: _103  and  _104
REMARK   38  A    between atoms: _103  and  _106
REMARK   39  A    between atoms: _106  and  _107
REMARK   40  A    between atoms: _117  and  _119
REMARK   41  A    between atoms: _119  and  _120
REMARK   42  A    between atoms: _119  and  _122
REMARK   43  A    between atoms: _122  and  _123
REMARK   44  A    between atoms: _128  and  _130
REMARK   45  A    between atoms: _130  and  _131
REMARK   46  A    between atoms: _133  and  _135
REMARK   47  A    between atoms: _135  and  _136
REMARK   48  A    between atoms: _135  and  _138
REMARK   49  A    between atoms: _138  and  _139
REMARK   50  A    between atoms: _144  and  _146
REMARK   51  A    between atoms: _146  and  _147
REMARK   52  A    between atoms: _146  and  _149
REMARK   53  A    between atoms: _149  and  _150
REMARK   54  A    between atoms: _150  and  _151
REMARK   55  A    between atoms: _151  and  _152
REMARK   56  A    between atoms: _152  and  _153
REMARK   57  A    between atoms: _157  and  _159
REMARK   58  A    between atoms: _159  and  _160
REMARK   59  A    between atoms: _159  and  _162
REMARK   60  A    between atoms: _162  and  _163
REMARK   61  A    between atoms: _168  and  _170
REMARK   62  A    between atoms: _170  and  _171
REMARK   63  A    between atoms: _170  and  _173
REMARK   64  A    between atoms: _173  and  _174
REMARK   65  A    between atoms: _180  and  _182
REMARK   66  A    between atoms: _182  and  _183
REMARK   67  A    between atoms: _182  and  _185
REMARK   68  A    between atoms: _185  and  _186
REMARK   69  A    between atoms: _191  and  _193
REMARK   70  A    between atoms: _193  and  _194
REMARK   71  A    between atoms: _196  and  _198
REMARK   72  A    between atoms: _198  and  _199
REMARK   73  A    between atoms: _198  and  _201
REMARK   74  A    between atoms: _201  and  _202
REMARK   75  A    between atoms: _202  and  _203
REMARK   76  A    between atoms: _206  and  _208
REMARK   77  A    between atoms: _208  and  _209
REMARK   78  A    between atoms: _208  and  _211
REMARK   79  A    between atoms: _211  and  _212
REMARK   80  A    between atoms: _212  and  _213
REMARK   81  A    between atoms: _217  and  _218
REMARK   82  A    between atoms: _223  and  _225
REMARK   83  A    between atoms: _225  and  _226
REMARK   84  A    between atoms: _225  and  _228
REMARK   85  A    between atoms: _228  and  _229
REMARK   86  A    between atoms: _229  and  _230
REMARK   87  A    between atoms: _233  and  _235
REMARK   88  A    between atoms: _235  and  _236
REMARK   89  A    between atoms: _235  and  _238
REMARK   90  A    between atoms: _238  and  _239
REMARK   91  A    between atoms: _239  and  _240
REMARK   92  A    between atoms: _243  and  _245
REMARK   93  A    between atoms: _245  and  _246
REMARK   94  A    between atoms: _245  and  _248
REMARK   95  A    between atoms: _248  and  _249
REMARK   96  A    between atoms: _252  and  _254
REMARK   97  A    between atoms: _254  and  _255
REMARK   98  A    between atoms: _254  and  _257
REMARK   99  A    between atoms: _257  and  _258
REMARK  100  A    between atoms: _258  and  _259
REMARK  101  A    between atoms: _261  and  _263
REMARK  102  A    between atoms: _263  and  _264
REMARK  103  A    between atoms: _263  and  _266
REMARK  104  A    between atoms: _269  and  _271
REMARK  105  A    between atoms: _271  and  _272
REMARK  106  A    between atoms: _271  and  _274
REMARK  107  A    between atoms: _274  and  _275
REMARK  108  A    between atoms: _278  and  _280
REMARK  109  A    between atoms: _280  and  _281
REMARK  110  A    between atoms: _280  and  _283
REMARK  111  A    between atoms: _283  and  _284
REMARK                            x       y       z     vdW  Elec       q    Type
REMARK                         _______ _______ _______ _____ _____    ______ ____
ROOT
ATOM      1  O   HOH     1       7.953 -10.168   2.501  0.00  0.00    +0.000 OA
ENDROOT
TORSDOF 0
