REMARK  Name = ../refined-set-2016/2fxu/2fxu_pocket.pdb
REMARK  205 active torsions:
REMARK  status: ('A' for Active; 'I' for Inactive)
REMARK    1  A    between atoms: _1  and  _3
REMARK    2  A    between atoms: _3  and  _4
REMARK    3  A    between atoms: _3  and  _6
REMARK    4  A    between atoms: _6  and  _7
REMARK    5  A    between atoms: _10  and  _12
REMARK    6  A    between atoms: _12  and  _13
REMARK    7  A    between atoms: _12  and  _15
REMARK    8  A    between atoms: _15  and  _16
REMARK    9  A    between atoms: _19  and  _21
REMARK   10  A    between atoms: _21  and  _22
REMARK   11  A    between atoms: _21  and  _24
REMARK   12  A    between atoms: _24  and  _25
REMARK   13  A    between atoms: _28  and  _30
REMARK   14  A    between atoms: _30  and  _31
REMARK   15  A    between atoms: _30  and  _33
REMARK   16  A    between atoms: _33  and  _34
REMARK   17  A    between atoms: _34  and  _35
REMARK   18  A    between atoms: _39  and  _40
REMARK   19  A    between atoms: _45  and  _47
REMARK   20  A    between atoms: _47  and  _48
REMARK   21  A    between atoms: _47  and  _50
REMARK   22  A    between atoms: _50  and  _51
REMARK   23  A    between atoms: _54  and  _56
REMARK   24  A    between atoms: _56  and  _57
REMARK   25  A    between atoms: _56  and  _59
REMARK   26  A    between atoms: _59  and  _60
REMARK   27  A    between atoms: _65  and  _67
REMARK   28  A    between atoms: _67  and  _68
REMARK   29  A    between atoms: _67  and  _70
REMARK   30  A    between atoms: _70  and  _71
REMARK   31  A    between atoms: _71  and  _72
REMARK   32  A    between atoms: _72  and  _73
REMARK   33  A    between atoms: _73  and  _74
REMARK   34  A    between atoms: _78  and  _80
REMARK   35  A    between atoms: _80  and  _81
REMARK   36  A    between atoms: _80  and  _83
REMARK   37  A    between atoms: _83  and  _84
REMARK   38  A    between atoms: _84  and  _85
REMARK   39  A    between atoms: _85  and  _86
REMARK   40  A    between atoms: _95  and  _97
REMARK   41  A    between atoms: _97  and  _98
REMARK   42  A    between atoms: _97  and  _100
REMARK   43  A    between atoms: _100  and  _101
REMARK   44  A    between atoms: _106  and  _107
REMARK   45  A    between atoms: _109  and  _111
REMARK   46  A    between atoms: _111  and  _112
REMARK   47  A    between atoms: _111  and  _114
REMARK   48  A    between atoms: _117  and  _119
REMARK   49  A    between atoms: _119  and  _120
REMARK   50  A    between atoms: _123  and  _125
REMARK   51  A    between atoms: _125  and  _126
REMARK   52  A    between atoms: _125  and  _128
REMARK   53  A    between atoms: _128  and  _129
REMARK   54  A    between atoms: _132  and  _134
REMARK   55  A    between atoms: _134  and  _135
REMARK   56  A    between atoms: _134  and  _137
REMARK   57  A    between atoms: _137  and  _138
REMARK   58  A    between atoms: _138  and  _139
REMARK   59  A    between atoms: _144  and  _146
REMARK   60  A    between atoms: _146  and  _147
REMARK   61  A    between atoms: _150  and  _152
REMARK   62  A    between atoms: _152  and  _153
REMARK   63  A    between atoms: _152  and  _155
REMARK   64  A    between atoms: _158  and  _160
REMARK   65  A    between atoms: _160  and  _161
REMARK   66  A    between atoms: _160  and  _163
REMARK   67  A    between atoms: _163  and  _164
REMARK   68  A    between atoms: _167  and  _169
REMARK   69  A    between atoms: _169  and  _170
REMARK   70  A    between atoms: _169  and  _172
REMARK   71  A    between atoms: _172  and  _173
REMARK   72  A    between atoms: _175  and  _177
REMARK   73  A    between atoms: _177  and  _178
REMARK   74  A    between atoms: _177  and  _180
REMARK   75  A    between atoms: _180  and  _181
REMARK   76  A    between atoms: _184  and  _186
REMARK   77  A    between atoms: _186  and  _187
REMARK   78  A    between atoms: _186  and  _189
REMARK   79  A    between atoms: _189  and  _190
REMARK   80  A    between atoms: _195  and  _196
REMARK   81  A    between atoms: _198  and  _200
REMARK   82  A    between atoms: _200  and  _201
REMARK   83  A    between atoms: _204  and  _206
REMARK   84  A    between atoms: _206  and  _207
REMARK   85  A    between atoms: _206  and  _209
REMARK   86  A    between atoms: _209  and  _210
REMARK   87  A    between atoms: _212  and  _214
REMARK   88  A    between atoms: _214  and  _215
REMARK   89  A    between atoms: _217  and  _219
REMARK   90  A    between atoms: _219  and  _220
REMARK   91  A    between atoms: _219  and  _222
REMARK   92  A    between atoms: _222  and  _223
REMARK   93  A    between atoms: _223  and  _224
REMARK   94  A    between atoms: _224  and  _225
REMARK   95  A    between atoms: _234  and  _236
REMARK   96  A    between atoms: _236  and  _237
REMARK   97  A    between atoms: _236  and  _239
REMARK   98  A    between atoms: _239  and  _240
REMARK   99  A    between atoms: _243  and  _245
REMARK  100  A    between atoms: _245  and  _246
REMARK  101  A    between atoms: _245  and  _248
REMARK  102  A    between atoms: _248  and  _249
REMARK  103  A    between atoms: _252  and  _254
REMARK  104  A    between atoms: _254  and  _255
REMARK  105  A    between atoms: _254  and  _257
REMARK  106  A    between atoms: _261  and  _262
REMARK  107  A    between atoms: _267  and  _269
REMARK  108  A    between atoms: _269  and  _270
REMARK  109  A    between atoms: _269  and  _272
REMARK  110  A    between atoms: _272  and  _273
REMARK  111  A    between atoms: _276  and  _278
REMARK  112  A    between atoms: _278  and  _279
REMARK  113  A    between atoms: _278  and  _281
REMARK  114  A    between atoms: _281  and  _282
REMARK  115  A    between atoms: _287  and  _288
REMARK  116  A    between atoms: _290  and  _292
REMARK  117  A    between atoms: _292  and  _293
REMARK  118  A    between atoms: _292  and  _295
REMARK  119  A    between atoms: _295  and  _296
REMARK  120  A    between atoms: _296  and  _297
REMARK  121  A    between atoms: _300  and  _302
REMARK  122  A    between atoms: _302  and  _303
REMARK  123  A    between atoms: _305  and  _307
REMARK  124  A    between atoms: _307  and  _308
REMARK  125  A    between atoms: _307  and  _310
REMARK  126  A    between atoms: _310  and  _311
REMARK  127  A    between atoms: _316  and  _317
REMARK  128  A    between atoms: _319  and  _321
REMARK  129  A    between atoms: _321  and  _322
REMARK  130  A    between atoms: _325  and  _327
REMARK  131  A    between atoms: _327  and  _328
REMARK  132  A    between atoms: _327  and  _330
REMARK  133  A    between atoms: _330  and  _331
REMARK  134  A    between atoms: _335  and  _336
REMARK  135  A    between atoms: _341  and  _343
REMARK  136  A    between atoms: _343  and  _344
REMARK  137  A    between atoms: _343  and  _346
REMARK  138  A    between atoms: _346  and  _347
REMARK  139  A    between atoms: _352  and  _354
REMARK  140  A    between atoms: _354  and  _355
REMARK  141  A    between atoms: _358  and  _360
REMARK  142  A    between atoms: _360  and  _361
REMARK  143  A    between atoms: _360  and  _363
REMARK  144  A    between atoms: _363  and  _364
REMARK  145  A    between atoms: _367  and  _369
REMARK  146  A    between atoms: _369  and  _370
REMARK  147  A    between atoms: _369  and  _372
REMARK  148  A    between atoms: _372  and  _373
REMARK  149  A    between atoms: _376  and  _378
REMARK  150  A    between atoms: _378  and  _379
REMARK  151  A    between atoms: _381  and  _383
REMARK  152  A    between atoms: _383  and  _384
REMARK  153  A    between atoms: _386  and  _388
REMARK  154  A    between atoms: _388  and  _389
REMARK  155  A    between atoms: _388  and  _391
REMARK  156  A    between atoms: _391  and  _392
REMARK  157  A    between atoms: _394  and  _396
REMARK  158  A    between atoms: _396  and  _397
REMARK  159  A    between atoms: _396  and  _399
REMARK  160  A    between atoms: _399  and  _400
REMARK  161  A    between atoms: _403  and  _405
REMARK  162  A    between atoms: _405  and  _406
REMARK  163  A    between atoms: _405  and  _408
REMARK  164  A    between atoms: _408  and  _409
REMARK  165  A    between atoms: _412  and  _414
REMARK  166  A    between atoms: _414  and  _415
REMARK  167  A    between atoms: _418  and  _420
REMARK  168  A    between atoms: _420  and  _421
REMARK  169  A    between atoms: _420  and  _423
REMARK  170  A    between atoms: _423  and  _424
REMARK  171  A    between atoms: _426  and  _428
REMARK  172  A    between atoms: _428  and  _429
REMARK  173  A    between atoms: _428  and  _431
REMARK  174  A    between atoms: _431  and  _432
REMARK  175  A    between atoms: _435  and  _437
REMARK  176  A    between atoms: _437  and  _438
REMARK  177  A    between atoms: _437  and  _440
REMARK  178  A    between atoms: _440  and  _441
REMARK  179  A    between atoms: _443  and  _445
REMARK  180  A    between atoms: _445  and  _446
REMARK  181  A    between atoms: _445  and  _448
REMARK  182  A    between atoms: _448  and  _449
REMARK  183  A    between atoms: _452  and  _454
REMARK  184  A    between atoms: _454  and  _455
REMARK  185  A    between atoms: _454  and  _457
REMARK  186  A    between atoms: _457  and  _458
REMARK  187  A    between atoms: _464  and  _466
REMARK  188  A    between atoms: _466  and  _467
REMARK  189  A    between atoms: _466  and  _469
REMARK  190  A    between atoms: _469  and  _470
REMARK  191  A    between atoms: _470  and  _471
REMARK  192  A    between atoms: _476  and  _478
REMARK  193  A    between atoms: _478  and  _479
REMARK  194  A    between atoms: _478  and  _481
REMARK  195  A    between atoms: _481  and  _482
REMARK  196  A    between atoms: _482  and  _483
REMARK  197  A    between atoms: _488  and  _490
REMARK  198  A    between atoms: _490  and  _491
REMARK  199  A    between atoms: _490  and  _493
REMARK  200  A    between atoms: _493  and  _494
REMARK  201  A    between atoms: _494  and  _495
REMARK  202  A    between atoms: _497  and  _499
REMARK  203  A    between atoms: _499  and  _500
REMARK  204  A    between atoms: _499  and  _502
REMARK  205  A    between atoms: _502  and  _503
REMARK                            x       y       z     vdW  Elec       q    Type
REMARK                         _______ _______ _______ _____ _____    ______ ____
ROOT
ATOM      1  C   LEU A   2      14.437  -3.791  37.563  0.00  0.00    +0.241 C 
ATOM      2  O   LEU A   2      14.406  -4.986  37.733  0.00  0.00    -0.273 OA
ATOM      3  N   THR A   3      15.137  -3.237  36.578  0.00  0.00    -0.295 N 
ATOM      4  H   THR A   3      15.128  -2.204  36.458  0.00  0.00    +0.150 HD
ENDROOT
BRANCH   3   5
ATOM      5  CA  THR A   3      15.924  -4.069  35.657  0.00  0.00    +0.176 C 
BRANCH   5   6
ATOM      6  C   THR A   3      17.379  -3.734  35.761  0.00  0.00    +0.243 C 
ATOM      7  O   THR A   3      17.720  -2.614  36.157  0.00  0.00    -0.273 OA
ATOM      8  N   GLU A   4      18.228  -4.672  35.319  0.00  0.00    -0.298 N 
ATOM      9  H   GLU A   4      17.839  -5.582  35.000  0.00  0.00    +0.150 HD
BRANCH   8  10
ATOM     10  CA  GLU A   4      19.670  -4.476  35.264  0.00  0.00    +0.137 C 
BRANCH  10  11
ATOM     11  C   GLU A   4      20.246  -5.079  33.992  0.00  0.00    +0.227 C 
ATOM     12  O   GLU A   4      19.641  -5.934  33.373  0.00  0.00    -0.286 OA
ENDBRANCH  10  11
BRANCH  10  13
ATOM     13  CB  GLU A   4      20.372  -5.098  36.501  0.00  0.00    +0.039 C 
BRANCH  13  14
ATOM     14  CG  GLU A   4      20.378  -6.648  36.530  0.00  0.00    +0.116 C 
BRANCH  14  15
ATOM     15  CD  GLU A   4      21.092  -7.254  37.710  0.00  0.00    +0.365 C 
ATOM     16  OE2 GLU A   4      21.381  -6.512  38.666  0.00  0.00    -0.246 OA
ATOM     17  OE1 GLU A   4      21.395  -8.469  37.613  0.00  0.00    -0.246 OA
ENDBRANCH  14  15
ENDBRANCH  13  14
ENDBRANCH  10  13
ENDBRANCH   8  10
ENDBRANCH   5   6
BRANCH   5  18
ATOM     18  CB  THR A   3      15.460  -3.889  34.192  0.00  0.00    +0.137 C 
ATOM     19  CG2 THR A   3      13.933  -3.998  34.046  0.00  0.00    +0.034 C 
BRANCH  18  20
ATOM     20  OG1 THR A   3      15.886  -2.621  33.693  0.00  0.00    -0.382 OA
ATOM     21  HG1 THR A   3      15.583  -2.518  32.756  0.00  0.00    +0.210 HD
ENDBRANCH  18  20
ENDBRANCH   5  18
ENDBRANCH   3   5
BRANCH   1  22
ATOM     22  CA  LEU A   2      13.687  -2.840  38.475  0.00  0.00    +0.149 C 
BRANCH  22  24
ATOM     23  C   LEU A   1      11.333  -3.380  38.947  0.00  0.00    +0.238 C 
ATOM     24  N   LEU A   2      12.622  -3.569  39.167  0.00  0.00    -0.297 N 
ATOM     25  H   LEU A   2      12.897  -4.279  39.875  0.00  0.00    +0.150 HD
ATOM     26  O   LEU A   1      10.866  -2.523  38.184  0.00  0.00    -0.274 OA
BRANCH  23  27
ATOM     27  CA  LEU A   1      10.400  -4.253  39.763  0.00  0.00    +0.145 C 
BRANCH  27  28
ATOM     28  N   LEU A   1       9.480  -3.393  40.513  0.00  0.00    -0.238 NA
ATOM     29  H   LEU A   1       8.622  -3.041  40.043  0.00  0.00    +0.142 HD
ENDBRANCH  27  28
BRANCH  27  30
ATOM     30  CB  LEU A   1       9.659  -5.216  38.841  0.00  0.00    +0.026 C 
BRANCH  30  31
ATOM     31  CG  LEU A   1      10.560  -6.166  38.021  0.00  0.00    +0.002 C 
ATOM     32  CD2 LEU A   1       9.939  -7.549  37.883  0.00  0.00    +0.000 C 
ATOM     33  CD1 LEU A   1      10.907  -5.635  36.652  0.00  0.00    +0.000 C 
ENDBRANCH  30  31
ENDBRANCH  27  30
ENDBRANCH  23  27
ENDBRANCH  22  24
BRANCH  22  34
ATOM     34  CB  LEU A   2      14.701  -2.227  39.452  0.00  0.00    +0.029 C 
BRANCH  34  35
ATOM     35  CG  LEU A   2      14.297  -1.227  40.550  0.00  0.00    +0.002 C 
ATOM     36  CD2 LEU A   2      15.493  -0.963  41.406  0.00  0.00    +0.000 C 
ATOM     37  CD1 LEU A   2      13.790   0.053  39.987  0.00  0.00    +0.000 C 
ENDBRANCH  34  35
ENDBRANCH  22  34
ENDBRANCH   1  22
TORSDOF 17
REMARK  Name = ../refined-set-2016/2fxu/2fxu_pocket.pdb
REMARK  205 active torsions:
REMARK  status: ('A' for Active; 'I' for Inactive)
REMARK    1  A    between atoms: _1  and  _3
REMARK    2  A    between atoms: _3  and  _4
REMARK    3  A    between atoms: _3  and  _6
REMARK    4  A    between atoms: _6  and  _7
REMARK    5  A    between atoms: _10  and  _12
REMARK    6  A    between atoms: _12  and  _13
REMARK    7  A    between atoms: _12  and  _15
REMARK    8  A    between atoms: _15  and  _16
REMARK    9  A    between atoms: _19  and  _21
REMARK   10  A    between atoms: _21  and  _22
REMARK   11  A    between atoms: _21  and  _24
REMARK   12  A    between atoms: _24  and  _25
REMARK   13  A    between atoms: _28  and  _30
REMARK   14  A    between atoms: _30  and  _31
REMARK   15  A    between atoms: _30  and  _33
REMARK   16  A    between atoms: _33  and  _34
REMARK   17  A    between atoms: _34  and  _35
REMARK   18  A    between atoms: _39  and  _40
REMARK   19  A    between atoms: _45  and  _47
REMARK   20  A    between atoms: _47  and  _48
REMARK   21  A    between atoms: _47  and  _50
REMARK   22  A    between atoms: _50  and  _51
REMARK   23  A    between atoms: _54  and  _56
REMARK   24  A    between atoms: _56  and  _57
REMARK   25  A    between atoms: _56  and  _59
REMARK   26  A    between atoms: _59  and  _60
REMARK   27  A    between atoms: _65  and  _67
REMARK   28  A    between atoms: _67  and  _68
REMARK   29  A    between atoms: _67  and  _70
REMARK   30  A    between atoms: _70  and  _71
REMARK   31  A    between atoms: _71  and  _72
REMARK   32  A    between atoms: _72  and  _73
REMARK   33  A    between atoms: _73  and  _74
REMARK   34  A    between atoms: _78  and  _80
REMARK   35  A    between atoms: _80  and  _81
REMARK   36  A    between atoms: _80  and  _83
REMARK   37  A    between atoms: _83  and  _84
REMARK   38  A    between atoms: _84  and  _85
REMARK   39  A    between atoms: _85  and  _86
REMARK   40  A    between atoms: _95  and  _97
REMARK   41  A    between atoms: _97  and  _98
REMARK   42  A    between atoms: _97  and  _100
REMARK   43  A    between atoms: _100  and  _101
REMARK   44  A    between atoms: _106  and  _107
REMARK   45  A    between atoms: _109  and  _111
REMARK   46  A    between atoms: _111  and  _112
REMARK   47  A    between atoms: _111  and  _114
REMARK   48  A    between atoms: _117  and  _119
REMARK   49  A    between atoms: _119  and  _120
REMARK   50  A    between atoms: _123  and  _125
REMARK   51  A    between atoms: _125  and  _126
REMARK   52  A    between atoms: _125  and  _128
REMARK   53  A    between atoms: _128  and  _129
REMARK   54  A    between atoms: _132  and  _134
REMARK   55  A    between atoms: _134  and  _135
REMARK   56  A    between atoms: _134  and  _137
REMARK   57  A    between atoms: _137  and  _138
REMARK   58  A    between atoms: _138  and  _139
REMARK   59  A    between atoms: _144  and  _146
REMARK   60  A    between atoms: _146  and  _147
REMARK   61  A    between atoms: _150  and  _152
REMARK   62  A    between atoms: _152  and  _153
REMARK   63  A    between atoms: _152  and  _155
REMARK   64  A    between atoms: _158  and  _160
REMARK   65  A    between atoms: _160  and  _161
REMARK   66  A    between atoms: _160  and  _163
REMARK   67  A    between atoms: _163  and  _164
REMARK   68  A    between atoms: _167  and  _169
REMARK   69  A    between atoms: _169  and  _170
REMARK   70  A    between atoms: _169  and  _172
REMARK   71  A    between atoms: _172  and  _173
REMARK   72  A    between atoms: _175  and  _177
REMARK   73  A    between atoms: _177  and  _178
REMARK   74  A    between atoms: _177  and  _180
REMARK   75  A    between atoms: _180  and  _181
REMARK   76  A    between atoms: _184  and  _186
REMARK   77  A    between atoms: _186  and  _187
REMARK   78  A    between atoms: _186  and  _189
REMARK   79  A    between atoms: _189  and  _190
REMARK   80  A    between atoms: _195  and  _196
REMARK   81  A    between atoms: _198  and  _200
REMARK   82  A    between atoms: _200  and  _201
REMARK   83  A    between atoms: _204  and  _206
REMARK   84  A    between atoms: _206  and  _207
REMARK   85  A    between atoms: _206  and  _209
REMARK   86  A    between atoms: _209  and  _210
REMARK   87  A    between atoms: _212  and  _214
REMARK   88  A    between atoms: _214  and  _215
REMARK   89  A    between atoms: _217  and  _219
REMARK   90  A    between atoms: _219  and  _220
REMARK   91  A    between atoms: _219  and  _222
REMARK   92  A    between atoms: _222  and  _223
REMARK   93  A    between atoms: _223  and  _224
REMARK   94  A    between atoms: _224  and  _225
REMARK   95  A    between atoms: _234  and  _236
REMARK   96  A    between atoms: _236  and  _237
REMARK   97  A    between atoms: _236  and  _239
REMARK   98  A    between atoms: _239  and  _240
REMARK   99  A    between atoms: _243  and  _245
REMARK  100  A    between atoms: _245  and  _246
REMARK  101  A    between atoms: _245  and  _248
REMARK  102  A    between atoms: _248  and  _249
REMARK  103  A    between atoms: _252  and  _254
REMARK  104  A    between atoms: _254  and  _255
REMARK  105  A    between atoms: _254  and  _257
REMARK  106  A    between atoms: _261  and  _262
REMARK  107  A    between atoms: _267  and  _269
REMARK  108  A    between atoms: _269  and  _270
REMARK  109  A    between atoms: _269  and  _272
REMARK  110  A    between atoms: _272  and  _273
REMARK  111  A    between atoms: _276  and  _278
REMARK  112  A    between atoms: _278  and  _279
REMARK  113  A    between atoms: _278  and  _281
REMARK  114  A    between atoms: _281  and  _282
REMARK  115  A    between atoms: _287  and  _288
REMARK  116  A    between atoms: _290  and  _292
REMARK  117  A    between atoms: _292  and  _293
REMARK  118  A    between atoms: _292  and  _295
REMARK  119  A    between atoms: _295  and  _296
REMARK  120  A    between atoms: _296  and  _297
REMARK  121  A    between atoms: _300  and  _302
REMARK  122  A    between atoms: _302  and  _303
REMARK  123  A    between atoms: _305  and  _307
REMARK  124  A    between atoms: _307  and  _308
REMARK  125  A    between atoms: _307  and  _310
REMARK  126  A    between atoms: _310  and  _311
REMARK  127  A    between atoms: _316  and  _317
REMARK  128  A    between atoms: _319  and  _321
REMARK  129  A    between atoms: _321  and  _322
REMARK  130  A    between atoms: _325  and  _327
REMARK  131  A    between atoms: _327  and  _328
REMARK  132  A    between atoms: _327  and  _330
REMARK  133  A    between atoms: _330  and  _331
REMARK  134  A    between atoms: _335  and  _336
REMARK  135  A    between atoms: _341  and  _343
REMARK  136  A    between atoms: _343  and  _344
REMARK  137  A    between atoms: _343  and  _346
REMARK  138  A    between atoms: _346  and  _347
REMARK  139  A    between atoms: _352  and  _354
REMARK  140  A    between atoms: _354  and  _355
REMARK  141  A    between atoms: _358  and  _360
REMARK  142  A    between atoms: _360  and  _361
REMARK  143  A    between atoms: _360  and  _363
REMARK  144  A    between atoms: _363  and  _364
REMARK  145  A    between atoms: _367  and  _369
REMARK  146  A    between atoms: _369  and  _370
REMARK  147  A    between atoms: _369  and  _372
REMARK  148  A    between atoms: _372  and  _373
REMARK  149  A    between atoms: _376  and  _378
REMARK  150  A    between atoms: _378  and  _379
REMARK  151  A    between atoms: _381  and  _383
REMARK  152  A    between atoms: _383  and  _384
REMARK  153  A    between atoms: _386  and  _388
REMARK  154  A    between atoms: _388  and  _389
REMARK  155  A    between atoms: _388  and  _391
REMARK  156  A    between atoms: _391  and  _392
REMARK  157  A    between atoms: _394  and  _396
REMARK  158  A    between atoms: _396  and  _397
REMARK  159  A    between atoms: _396  and  _399
REMARK  160  A    between atoms: _399  and  _400
REMARK  161  A    between atoms: _403  and  _405
REMARK  162  A    between atoms: _405  and  _406
REMARK  163  A    between atoms: _405  and  _408
REMARK  164  A    between atoms: _408  and  _409
REMARK  165  A    between atoms: _412  and  _414
REMARK  166  A    between atoms: _414  and  _415
REMARK  167  A    between atoms: _418  and  _420
REMARK  168  A    between atoms: _420  and  _421
REMARK  169  A    between atoms: _420  and  _423
REMARK  170  A    between atoms: _423  and  _424
REMARK  171  A    between atoms: _426  and  _428
REMARK  172  A    between atoms: _428  and  _429
REMARK  173  A    between atoms: _428  and  _431
REMARK  174  A    between atoms: _431  and  _432
REMARK  175  A    between atoms: _435  and  _437
REMARK  176  A    between atoms: _437  and  _438
REMARK  177  A    between atoms: _437  and  _440
REMARK  178  A    between atoms: _440  and  _441
REMARK  179  A    between atoms: _443  and  _445
REMARK  180  A    between atoms: _445  and  _446
REMARK  181  A    between atoms: _445  and  _448
REMARK  182  A    between atoms: _448  and  _449
REMARK  183  A    between atoms: _452  and  _454
REMARK  184  A    between atoms: _454  and  _455
REMARK  185  A    between atoms: _454  and  _457
REMARK  186  A    between atoms: _457  and  _458
REMARK  187  A    between atoms: _464  and  _466
REMARK  188  A    between atoms: _466  and  _467
REMARK  189  A    between atoms: _466  and  _469
REMARK  190  A    between atoms: _469  and  _470
REMARK  191  A    between atoms: _470  and  _471
REMARK  192  A    between atoms: _476  and  _478
REMARK  193  A    between atoms: _478  and  _479
REMARK  194  A    between atoms: _478  and  _481
REMARK  195  A    between atoms: _481  and  _482
REMARK  196  A    between atoms: _482  and  _483
REMARK  197  A    between atoms: _488  and  _490
REMARK  198  A    between atoms: _490  and  _491
REMARK  199  A    between atoms: _490  and  _493
REMARK  200  A    between atoms: _493  and  _494
REMARK  201  A    between atoms: _494  and  _495
REMARK  202  A    between atoms: _497  and  _499
REMARK  203  A    between atoms: _499  and  _500
REMARK  204  A    between atoms: _499  and  _502
REMARK  205  A    between atoms: _502  and  _503
REMARK                            x       y       z     vdW  Elec       q    Type
REMARK                         _______ _______ _______ _____ _____    ______ ____
ROOT
ATOM      1  CA  LEU A   2      26.808  -9.141  33.967  0.00  0.00    +0.149 C 
ENDROOT
BRANCH   1   3
ATOM      2  C   PRO A   1      25.027  -8.342  32.458  0.00  0.00    +0.239 C 
ATOM      3  N   LEU A   2      25.500  -9.256  33.309  0.00  0.00    -0.297 N 
ATOM      4  H   LEU A   2      24.914 -10.090  33.516  0.00  0.00    +0.150 HD
ATOM      5  O   PRO A   1      25.607  -7.305  32.202  0.00  0.00    -0.274 OA
BRANCH   2   7
ATOM      6  N   PRO A   1      22.913  -7.342  31.754  0.00  0.00    -0.210 NA
ATOM      7  CA  PRO A   1      23.637  -8.596  31.868  0.00  0.00    +0.149 C 
ATOM      8  CB  PRO A   1      23.757  -9.049  30.398  0.00  0.00    +0.028 C 
ATOM      9  CG  PRO A   1      22.602  -8.402  29.710  0.00  0.00    +0.021 C 
ATOM     10  CD  PRO A   1      22.479  -7.076  30.367  0.00  0.00    +0.089 C 
ENDBRANCH   2   7
ENDBRANCH   1   3
BRANCH   1  11
ATOM     11  C   LEU A   2      26.941  -7.924  34.894  0.00  0.00    +0.241 C 
ATOM     12  N   ASN A   3      25.824  -7.421  35.408  0.00  0.00    -0.298 N 
ATOM     13  H   ASN A   3      24.907  -7.821  35.123  0.00  0.00    +0.150 HD
ATOM     14  O   LEU A   2      28.048  -7.470  35.162  0.00  0.00    -0.273 OA
BRANCH  12  15
ATOM     15  CA  ASN A   3      25.857  -6.320  36.364  0.00  0.00    +0.146 C 
BRANCH  15  16
ATOM     16  C   ASN A   3      26.529  -6.846  37.643  0.00  0.00    +0.227 C 
ATOM     17  O   ASN A   3      26.151  -7.908  38.133  0.00  0.00    -0.286 OA
ENDBRANCH  15  16
BRANCH  15  18
ATOM     18  CB  ASN A   3      24.437  -5.862  36.673  0.00  0.00    +0.112 C 
BRANCH  18  19
ATOM     19  CG  ASN A   3      24.404  -4.599  37.508  0.00  0.00    +0.222 C 
ATOM     20  ND2 ASN A   3      23.451  -4.531  38.439  0.00  0.00    -0.329 N 
ATOM     21 HD21 ASN A   3      23.373  -3.688  39.042  0.00  0.00    +0.145 HD
ATOM     22 HD22 ASN A   3      22.786  -5.321  38.561  0.00  0.00    +0.145 HD
ATOM     23  OD1 ASN A   3      25.214  -3.701  37.318  0.00  0.00    -0.275 OA
ENDBRANCH  18  19
ENDBRANCH  15  18
ENDBRANCH  12  15
ENDBRANCH   1  11
BRANCH   1  24
ATOM     24  CB  LEU A   2      27.960  -9.168  32.952  0.00  0.00    +0.029 C 
BRANCH  24  25
ATOM     25  CG  LEU A   2      27.935 -10.361  31.978  0.00  0.00    +0.002 C 
ATOM     26  CD2 LEU A   2      28.069 -11.679  32.717  0.00  0.00    +0.000 C 
ATOM     27  CD1 LEU A   2      28.982 -10.232  30.890  0.00  0.00    +0.000 C 
ENDBRANCH  24  25
ENDBRANCH   1  24
TORSDOF 9
REMARK  Name = ../refined-set-2016/2fxu/2fxu_pocket.pdb
REMARK  205 active torsions:
REMARK  status: ('A' for Active; 'I' for Inactive)
REMARK    1  A    between atoms: _1  and  _3
REMARK    2  A    between atoms: _3  and  _4
REMARK    3  A    between atoms: _3  and  _6
REMARK    4  A    between atoms: _6  and  _7
REMARK    5  A    between atoms: _10  and  _12
REMARK    6  A    between atoms: _12  and  _13
REMARK    7  A    between atoms: _12  and  _15
REMARK    8  A    between atoms: _15  and  _16
REMARK    9  A    between atoms: _19  and  _21
REMARK   10  A    between atoms: _21  and  _22
REMARK   11  A    between atoms: _21  and  _24
REMARK   12  A    between atoms: _24  and  _25
REMARK   13  A    between atoms: _28  and  _30
REMARK   14  A    between atoms: _30  and  _31
REMARK   15  A    between atoms: _30  and  _33
REMARK   16  A    between atoms: _33  and  _34
REMARK   17  A    between atoms: _34  and  _35
REMARK   18  A    between atoms: _39  and  _40
REMARK   19  A    between atoms: _45  and  _47
REMARK   20  A    between atoms: _47  and  _48
REMARK   21  A    between atoms: _47  and  _50
REMARK   22  A    between atoms: _50  and  _51
REMARK   23  A    between atoms: _54  and  _56
REMARK   24  A    between atoms: _56  and  _57
REMARK   25  A    between atoms: _56  and  _59
REMARK   26  A    between atoms: _59  and  _60
REMARK   27  A    between atoms: _65  and  _67
REMARK   28  A    between atoms: _67  and  _68
REMARK   29  A    between atoms: _67  and  _70
REMARK   30  A    between atoms: _70  and  _71
REMARK   31  A    between atoms: _71  and  _72
REMARK   32  A    between atoms: _72  and  _73
REMARK   33  A    between atoms: _73  and  _74
REMARK   34  A    between atoms: _78  and  _80
REMARK   35  A    between atoms: _80  and  _81
REMARK   36  A    between atoms: _80  and  _83
REMARK   37  A    between atoms: _83  and  _84
REMARK   38  A    between atoms: _84  and  _85
REMARK   39  A    between atoms: _85  and  _86
REMARK   40  A    between atoms: _95  and  _97
REMARK   41  A    between atoms: _97  and  _98
REMARK   42  A    between atoms: _97  and  _100
REMARK   43  A    between atoms: _100  and  _101
REMARK   44  A    between atoms: _106  and  _107
REMARK   45  A    between atoms: _109  and  _111
REMARK   46  A    between atoms: _111  and  _112
REMARK   47  A    between atoms: _111  and  _114
REMARK   48  A    between atoms: _117  and  _119
REMARK   49  A    between atoms: _119  and  _120
REMARK   50  A    between atoms: _123  and  _125
REMARK   51  A    between atoms: _125  and  _126
REMARK   52  A    between atoms: _125  and  _128
REMARK   53  A    between atoms: _128  and  _129
REMARK   54  A    between atoms: _132  and  _134
REMARK   55  A    between atoms: _134  and  _135
REMARK   56  A    between atoms: _134  and  _137
REMARK   57  A    between atoms: _137  and  _138
REMARK   58  A    between atoms: _138  and  _139
REMARK   59  A    between atoms: _144  and  _146
REMARK   60  A    between atoms: _146  and  _147
REMARK   61  A    between atoms: _150  and  _152
REMARK   62  A    between atoms: _152  and  _153
REMARK   63  A    between atoms: _152  and  _155
REMARK   64  A    between atoms: _158  and  _160
REMARK   65  A    between atoms: _160  and  _161
REMARK   66  A    between atoms: _160  and  _163
REMARK   67  A    between atoms: _163  and  _164
REMARK   68  A    between atoms: _167  and  _169
REMARK   69  A    between atoms: _169  and  _170
REMARK   70  A    between atoms: _169  and  _172
REMARK   71  A    between atoms: _172  and  _173
REMARK   72  A    between atoms: _175  and  _177
REMARK   73  A    between atoms: _177  and  _178
REMARK   74  A    between atoms: _177  and  _180
REMARK   75  A    between atoms: _180  and  _181
REMARK   76  A    between atoms: _184  and  _186
REMARK   77  A    between atoms: _186  and  _187
REMARK   78  A    between atoms: _186  and  _189
REMARK   79  A    between atoms: _189  and  _190
REMARK   80  A    between atoms: _195  and  _196
REMARK   81  A    between atoms: _198  and  _200
REMARK   82  A    between atoms: _200  and  _201
REMARK   83  A    between atoms: _204  and  _206
REMARK   84  A    between atoms: _206  and  _207
REMARK   85  A    between atoms: _206  and  _209
REMARK   86  A    between atoms: _209  and  _210
REMARK   87  A    between atoms: _212  and  _214
REMARK   88  A    between atoms: _214  and  _215
REMARK   89  A    between atoms: _217  and  _219
REMARK   90  A    between atoms: _219  and  _220
REMARK   91  A    between atoms: _219  and  _222
REMARK   92  A    between atoms: _222  and  _223
REMARK   93  A    between atoms: _223  and  _224
REMARK   94  A    between atoms: _224  and  _225
REMARK   95  A    between atoms: _234  and  _236
REMARK   96  A    between atoms: _236  and  _237
REMARK   97  A    between atoms: _236  and  _239
REMARK   98  A    between atoms: _239  and  _240
REMARK   99  A    between atoms: _243  and  _245
REMARK  100  A    between atoms: _245  and  _246
REMARK  101  A    between atoms: _245  and  _248
REMARK  102  A    between atoms: _248  and  _249
REMARK  103  A    between atoms: _252  and  _254
REMARK  104  A    between atoms: _254  and  _255
REMARK  105  A    between atoms: _254  and  _257
REMARK  106  A    between atoms: _261  and  _262
REMARK  107  A    between atoms: _267  and  _269
REMARK  108  A    between atoms: _269  and  _270
REMARK  109  A    between atoms: _269  and  _272
REMARK  110  A    between atoms: _272  and  _273
REMARK  111  A    between atoms: _276  and  _278
REMARK  112  A    between atoms: _278  and  _279
REMARK  113  A    between atoms: _278  and  _281
REMARK  114  A    between atoms: _281  and  _282
REMARK  115  A    between atoms: _287  and  _288
REMARK  116  A    between atoms: _290  and  _292
REMARK  117  A    between atoms: _292  and  _293
REMARK  118  A    between atoms: _292  and  _295
REMARK  119  A    between atoms: _295  and  _296
REMARK  120  A    between atoms: _296  and  _297
REMARK  121  A    between atoms: _300  and  _302
REMARK  122  A    between atoms: _302  and  _303
REMARK  123  A    between atoms: _305  and  _307
REMARK  124  A    between atoms: _307  and  _308
REMARK  125  A    between atoms: _307  and  _310
REMARK  126  A    between atoms: _310  and  _311
REMARK  127  A    between atoms: _316  and  _317
REMARK  128  A    between atoms: _319  and  _321
REMARK  129  A    between atoms: _321  and  _322
REMARK  130  A    between atoms: _325  and  _327
REMARK  131  A    between atoms: _327  and  _328
REMARK  132  A    between atoms: _327  and  _330
REMARK  133  A    between atoms: _330  and  _331
REMARK  134  A    between atoms: _335  and  _336
REMARK  135  A    between atoms: _341  and  _343
REMARK  136  A    between atoms: _343  and  _344
REMARK  137  A    between atoms: _343  and  _346
REMARK  138  A    between atoms: _346  and  _347
REMARK  139  A    between atoms: _352  and  _354
REMARK  140  A    between atoms: _354  and  _355
REMARK  141  A    between atoms: _358  and  _360
REMARK  142  A    between atoms: _360  and  _361
REMARK  143  A    between atoms: _360  and  _363
REMARK  144  A    between atoms: _363  and  _364
REMARK  145  A    between atoms: _367  and  _369
REMARK  146  A    between atoms: _369  and  _370
REMARK  147  A    between atoms: _369  and  _372
REMARK  148  A    between atoms: _372  and  _373
REMARK  149  A    between atoms: _376  and  _378
REMARK  150  A    between atoms: _378  and  _379
REMARK  151  A    between atoms: _381  and  _383
REMARK  152  A    between atoms: _383  and  _384
REMARK  153  A    between atoms: _386  and  _388
REMARK  154  A    between atoms: _388  and  _389
REMARK  155  A    between atoms: _388  and  _391
REMARK  156  A    between atoms: _391  and  _392
REMARK  157  A    between atoms: _394  and  _396
REMARK  158  A    between atoms: _396  and  _397
REMARK  159  A    between atoms: _396  and  _399
REMARK  160  A    between atoms: _399  and  _400
REMARK  161  A    between atoms: _403  and  _405
REMARK  162  A    between atoms: _405  and  _406
REMARK  163  A    between atoms: _405  and  _408
REMARK  164  A    between atoms: _408  and  _409
REMARK  165  A    between atoms: _412  and  _414
REMARK  166  A    between atoms: _414  and  _415
REMARK  167  A    between atoms: _418  and  _420
REMARK  168  A    between atoms: _420  and  _421
REMARK  169  A    between atoms: _420  and  _423
REMARK  170  A    between atoms: _423  and  _424
REMARK  171  A    between atoms: _426  and  _428
REMARK  172  A    between atoms: _428  and  _429
REMARK  173  A    between atoms: _428  and  _431
REMARK  174  A    between atoms: _431  and  _432
REMARK  175  A    between atoms: _435  and  _437
REMARK  176  A    between atoms: _437  and  _438
REMARK  177  A    between atoms: _437  and  _440
REMARK  178  A    between atoms: _440  and  _441
REMARK  179  A    between atoms: _443  and  _445
REMARK  180  A    between atoms: _445  and  _446
REMARK  181  A    between atoms: _445  and  _448
REMARK  182  A    between atoms: _448  and  _449
REMARK  183  A    between atoms: _452  and  _454
REMARK  184  A    between atoms: _454  and  _455
REMARK  185  A    between atoms: _454  and  _457
REMARK  186  A    between atoms: _457  and  _458
REMARK  187  A    between atoms: _464  and  _466
REMARK  188  A    between atoms: _466  and  _467
REMARK  189  A    between atoms: _466  and  _469
REMARK  190  A    between atoms: _469  and  _470
REMARK  191  A    between atoms: _470  and  _471
REMARK  192  A    between atoms: _476  and  _478
REMARK  193  A    between atoms: _478  and  _479
REMARK  194  A    between atoms: _478  and  _481
REMARK  195  A    between atoms: _481  and  _482
REMARK  196  A    between atoms: _482  and  _483
REMARK  197  A    between atoms: _488  and  _490
REMARK  198  A    between atoms: _490  and  _491
REMARK  199  A    between atoms: _490  and  _493
REMARK  200  A    between atoms: _493  and  _494
REMARK  201  A    between atoms: _494  and  _495
REMARK  202  A    between atoms: _497  and  _499
REMARK  203  A    between atoms: _499  and  _500
REMARK  204  A    between atoms: _499  and  _502
REMARK  205  A    between atoms: _502  and  _503
REMARK                            x       y       z     vdW  Elec       q    Type
REMARK                         _______ _______ _______ _____ _____    ______ ____
ROOT
ATOM      1  CG  LYS A   1      27.322 -10.507  42.563  0.00  0.00    -0.000 C 
ENDROOT
BRANCH   1   2
ATOM      2  CB  LYS A   1      27.181  -9.249  43.388  0.00  0.00    +0.025 C 
BRANCH   2   3
ATOM      3  CA  LYS A   1      26.693  -8.041  42.592  0.00  0.00    +0.133 C 
BRANCH   3   4
ATOM      4  N   LYS A   1      27.541  -7.786  41.428  0.00  0.00    -0.239 NA
ATOM      5  H   LYS A   1      28.398  -8.358  41.286  0.00  0.00    +0.142 HD
ENDBRANCH   3   4
BRANCH   3   6
ATOM      6  C   LYS A   1      26.588  -6.816  43.503  0.00  0.00    +0.224 C 
ATOM      7  O   LYS A   1      25.496  -6.495  43.979  0.00  0.00    -0.287 OA
ENDBRANCH   3   6
ENDBRANCH   2   3
ENDBRANCH   1   2
BRANCH   1   8
ATOM      8  CD  LYS A   1      27.060 -11.771  43.398  0.00  0.00    -0.024 C 
BRANCH   8   9
ATOM      9  CE  LYS A   1      27.440 -13.026  42.614  0.00  0.00    -0.086 C 
BRANCH   9  10
ATOM     10  NZ  LYS A   1      26.829 -14.247  43.200  0.00  0.00    +0.380 N 
ATOM     11  HZ1 LYS A   1      27.157 -14.361  44.180  0.00  0.00    -0.089 HD
ATOM     12  HZ2 LYS A   1      25.793 -14.155  43.188  0.00  0.00    -0.089 HD
ATOM     13  HZ3 LYS A   1      27.110 -15.077  42.640  0.00  0.00    -0.089 HD
ENDBRANCH   9  10
ENDBRANCH   8   9
ENDBRANCH   1   8
TORSDOF 7
REMARK  Name = ../refined-set-2016/2fxu/2fxu_pocket.pdb
REMARK  205 active torsions:
REMARK  status: ('A' for Active; 'I' for Inactive)
REMARK    1  A    between atoms: _1  and  _3
REMARK    2  A    between atoms: _3  and  _4
REMARK    3  A    between atoms: _3  and  _6
REMARK    4  A    between atoms: _6  and  _7
REMARK    5  A    between atoms: _10  and  _12
REMARK    6  A    between atoms: _12  and  _13
REMARK    7  A    between atoms: _12  and  _15
REMARK    8  A    between atoms: _15  and  _16
REMARK    9  A    between atoms: _19  and  _21
REMARK   10  A    between atoms: _21  and  _22
REMARK   11  A    between atoms: _21  and  _24
REMARK   12  A    between atoms: _24  and  _25
REMARK   13  A    between atoms: _28  and  _30
REMARK   14  A    between atoms: _30  and  _31
REMARK   15  A    between atoms: _30  and  _33
REMARK   16  A    between atoms: _33  and  _34
REMARK   17  A    between atoms: _34  and  _35
REMARK   18  A    between atoms: _39  and  _40
REMARK   19  A    between atoms: _45  and  _47
REMARK   20  A    between atoms: _47  and  _48
REMARK   21  A    between atoms: _47  and  _50
REMARK   22  A    between atoms: _50  and  _51
REMARK   23  A    between atoms: _54  and  _56
REMARK   24  A    between atoms: _56  and  _57
REMARK   25  A    between atoms: _56  and  _59
REMARK   26  A    between atoms: _59  and  _60
REMARK   27  A    between atoms: _65  and  _67
REMARK   28  A    between atoms: _67  and  _68
REMARK   29  A    between atoms: _67  and  _70
REMARK   30  A    between atoms: _70  and  _71
REMARK   31  A    between atoms: _71  and  _72
REMARK   32  A    between atoms: _72  and  _73
REMARK   33  A    between atoms: _73  and  _74
REMARK   34  A    between atoms: _78  and  _80
REMARK   35  A    between atoms: _80  and  _81
REMARK   36  A    between atoms: _80  and  _83
REMARK   37  A    between atoms: _83  and  _84
REMARK   38  A    between atoms: _84  and  _85
REMARK   39  A    between atoms: _85  and  _86
REMARK   40  A    between atoms: _95  and  _97
REMARK   41  A    between atoms: _97  and  _98
REMARK   42  A    between atoms: _97  and  _100
REMARK   43  A    between atoms: _100  and  _101
REMARK   44  A    between atoms: _106  and  _107
REMARK   45  A    between atoms: _109  and  _111
REMARK   46  A    between atoms: _111  and  _112
REMARK   47  A    between atoms: _111  and  _114
REMARK   48  A    between atoms: _117  and  _119
REMARK   49  A    between atoms: _119  and  _120
REMARK   50  A    between atoms: _123  and  _125
REMARK   51  A    between atoms: _125  and  _126
REMARK   52  A    between atoms: _125  and  _128
REMARK   53  A    between atoms: _128  and  _129
REMARK   54  A    between atoms: _132  and  _134
REMARK   55  A    between atoms: _134  and  _135
REMARK   56  A    between atoms: _134  and  _137
REMARK   57  A    between atoms: _137  and  _138
REMARK   58  A    between atoms: _138  and  _139
REMARK   59  A    between atoms: _144  and  _146
REMARK   60  A    between atoms: _146  and  _147
REMARK   61  A    between atoms: _150  and  _152
REMARK   62  A    between atoms: _152  and  _153
REMARK   63  A    between atoms: _152  and  _155
REMARK   64  A    between atoms: _158  and  _160
REMARK   65  A    between atoms: _160  and  _161
REMARK   66  A    between atoms: _160  and  _163
REMARK   67  A    between atoms: _163  and  _164
REMARK   68  A    between atoms: _167  and  _169
REMARK   69  A    between atoms: _169  and  _170
REMARK   70  A    between atoms: _169  and  _172
REMARK   71  A    between atoms: _172  and  _173
REMARK   72  A    between atoms: _175  and  _177
REMARK   73  A    between atoms: _177  and  _178
REMARK   74  A    between atoms: _177  and  _180
REMARK   75  A    between atoms: _180  and  _181
REMARK   76  A    between atoms: _184  and  _186
REMARK   77  A    between atoms: _186  and  _187
REMARK   78  A    between atoms: _186  and  _189
REMARK   79  A    between atoms: _189  and  _190
REMARK   80  A    between atoms: _195  and  _196
REMARK   81  A    between atoms: _198  and  _200
REMARK   82  A    between atoms: _200  and  _201
REMARK   83  A    between atoms: _204  and  _206
REMARK   84  A    between atoms: _206  and  _207
REMARK   85  A    between atoms: _206  and  _209
REMARK   86  A    between atoms: _209  and  _210
REMARK   87  A    between atoms: _212  and  _214
REMARK   88  A    between atoms: _214  and  _215
REMARK   89  A    between atoms: _217  and  _219
REMARK   90  A    between atoms: _219  and  _220
REMARK   91  A    between atoms: _219  and  _222
REMARK   92  A    between atoms: _222  and  _223
REMARK   93  A    between atoms: _223  and  _224
REMARK   94  A    between atoms: _224  and  _225
REMARK   95  A    between atoms: _234  and  _236
REMARK   96  A    between atoms: _236  and  _237
REMARK   97  A    between atoms: _236  and  _239
REMARK   98  A    between atoms: _239  and  _240
REMARK   99  A    between atoms: _243  and  _245
REMARK  100  A    between atoms: _245  and  _246
REMARK  101  A    between atoms: _245  and  _248
REMARK  102  A    between atoms: _248  and  _249
REMARK  103  A    between atoms: _252  and  _254
REMARK  104  A    between atoms: _254  and  _255
REMARK  105  A    between atoms: _254  and  _257
REMARK  106  A    between atoms: _261  and  _262
REMARK  107  A    between atoms: _267  and  _269
REMARK  108  A    between atoms: _269  and  _270
REMARK  109  A    between atoms: _269  and  _272
REMARK  110  A    between atoms: _272  and  _273
REMARK  111  A    between atoms: _276  and  _278
REMARK  112  A    between atoms: _278  and  _279
REMARK  113  A    between atoms: _278  and  _281
REMARK  114  A    between atoms: _281  and  _282
REMARK  115  A    between atoms: _287  and  _288
REMARK  116  A    between atoms: _290  and  _292
REMARK  117  A    between atoms: _292  and  _293
REMARK  118  A    between atoms: _292  and  _295
REMARK  119  A    between atoms: _295  and  _296
REMARK  120  A    between atoms: _296  and  _297
REMARK  121  A    between atoms: _300  and  _302
REMARK  122  A    between atoms: _302  and  _303
REMARK  123  A    between atoms: _305  and  _307
REMARK  124  A    between atoms: _307  and  _308
REMARK  125  A    between atoms: _307  and  _310
REMARK  126  A    between atoms: _310  and  _311
REMARK  127  A    between atoms: _316  and  _317
REMARK  128  A    between atoms: _319  and  _321
REMARK  129  A    between atoms: _321  and  _322
REMARK  130  A    between atoms: _325  and  _327
REMARK  131  A    between atoms: _327  and  _328
REMARK  132  A    between atoms: _327  and  _330
REMARK  133  A    between atoms: _330  and  _331
REMARK  134  A    between atoms: _335  and  _336
REMARK  135  A    between atoms: _341  and  _343
REMARK  136  A    between atoms: _343  and  _344
REMARK  137  A    between atoms: _343  and  _346
REMARK  138  A    between atoms: _346  and  _347
REMARK  139  A    between atoms: _352  and  _354
REMARK  140  A    between atoms: _354  and  _355
REMARK  141  A    between atoms: _358  and  _360
REMARK  142  A    between atoms: _360  and  _361
REMARK  143  A    between atoms: _360  and  _363
REMARK  144  A    between atoms: _363  and  _364
REMARK  145  A    between atoms: _367  and  _369
REMARK  146  A    between atoms: _369  and  _370
REMARK  147  A    between atoms: _369  and  _372
REMARK  148  A    between atoms: _372  and  _373
REMARK  149  A    between atoms: _376  and  _378
REMARK  150  A    between atoms: _378  and  _379
REMARK  151  A    between atoms: _381  and  _383
REMARK  152  A    between atoms: _383  and  _384
REMARK  153  A    between atoms: _386  and  _388
REMARK  154  A    between atoms: _388  and  _389
REMARK  155  A    between atoms: _388  and  _391
REMARK  156  A    between atoms: _391  and  _392
REMARK  157  A    between atoms: _394  and  _396
REMARK  158  A    between atoms: _396  and  _397
REMARK  159  A    between atoms: _396  and  _399
REMARK  160  A    between atoms: _399  and  _400
REMARK  161  A    between atoms: _403  and  _405
REMARK  162  A    between atoms: _405  and  _406
REMARK  163  A    between atoms: _405  and  _408
REMARK  164  A    between atoms: _408  and  _409
REMARK  165  A    between atoms: _412  and  _414
REMARK  166  A    between atoms: _414  and  _415
REMARK  167  A    between atoms: _418  and  _420
REMARK  168  A    between atoms: _420  and  _421
REMARK  169  A    between atoms: _420  and  _423
REMARK  170  A    between atoms: _423  and  _424
REMARK  171  A    between atoms: _426  and  _428
REMARK  172  A    between atoms: _428  and  _429
REMARK  173  A    between atoms: _428  and  _431
REMARK  174  A    between atoms: _431  and  _432
REMARK  175  A    between atoms: _435  and  _437
REMARK  176  A    between atoms: _437  and  _438
REMARK  177  A    between atoms: _437  and  _440
REMARK  178  A    between atoms: _440  and  _441
REMARK  179  A    between atoms: _443  and  _445
REMARK  180  A    between atoms: _445  and  _446
REMARK  181  A    between atoms: _445  and  _448
REMARK  182  A    between atoms: _448  and  _449
REMARK  183  A    between atoms: _452  and  _454
REMARK  184  A    between atoms: _454  and  _455
REMARK  185  A    between atoms: _454  and  _457
REMARK  186  A    between atoms: _457  and  _458
REMARK  187  A    between atoms: _464  and  _466
REMARK  188  A    between atoms: _466  and  _467
REMARK  189  A    between atoms: _466  and  _469
REMARK  190  A    between atoms: _469  and  _470
REMARK  191  A    between atoms: _470  and  _471
REMARK  192  A    between atoms: _476  and  _478
REMARK  193  A    between atoms: _478  and  _479
REMARK  194  A    between atoms: _478  and  _481
REMARK  195  A    between atoms: _481  and  _482
REMARK  196  A    between atoms: _482  and  _483
REMARK  197  A    between atoms: _488  and  _490
REMARK  198  A    between atoms: _490  and  _491
REMARK  199  A    between atoms: _490  and  _493
REMARK  200  A    between atoms: _493  and  _494
REMARK  201  A    between atoms: _494  and  _495
REMARK  202  A    between atoms: _497  and  _499
REMARK  203  A    between atoms: _499  and  _500
REMARK  204  A    between atoms: _499  and  _502
REMARK  205  A    between atoms: _502  and  _503
REMARK                            x       y       z     vdW  Elec       q    Type
REMARK                         _______ _______ _______ _____ _____    ______ ____
ROOT
ATOM      1  NE  ARG A   1      20.471  -8.756  40.655  0.00  0.00    -0.265 N 
ATOM      2  CZ  ARG A   1      19.973  -9.932  40.288  0.00  0.00    +0.342 C 
ATOM      3  NH2 ARG A   1      19.439 -10.751  41.190  0.00  0.00    -0.292 N 
ATOM      4 HH21 ARG A   1      19.409 -10.473  42.192  0.00  0.00    +0.255 HD
ATOM      5 HH22 ARG A   1      19.052 -11.670  40.894  0.00  0.00    +0.255 HD
ATOM      6  NH1 ARG A   1      19.997 -10.307  39.014  0.00  0.00    -0.292 N 
ATOM      7 HH11 ARG A   1      19.605 -11.229  38.736  0.00  0.00    +0.255 HD
ATOM      8 HH12 ARG A   1      20.408  -9.678  38.295  0.00  0.00    +0.255 HD
ATOM      9  HE  ARG A   1      20.885  -8.149  39.919  0.00  0.00    +0.259 HD
ENDROOT
BRANCH   1  10
ATOM     10  CD  ARG A   1      20.471  -8.262  42.040  0.00  0.00    +0.174 C 
BRANCH  10  11
ATOM     11  CG  ARG A   1      20.713  -6.750  42.170  0.00  0.00    +0.045 C 
BRANCH  11  12
ATOM     12  CB  ARG A   1      22.175  -6.319  42.023  0.00  0.00    +0.029 C 
BRANCH  12  13
ATOM     13  CA  ARG A   1      22.413  -4.850  42.389  0.00  0.00    +0.133 C 
BRANCH  13  14
ATOM     14  N   ARG A   1      23.805  -4.442  42.086  0.00  0.00    -0.239 NA
ATOM     15  H   ARG A   1      24.472  -5.150  41.718  0.00  0.00    +0.142 HD
ENDBRANCH  13  14
BRANCH  13  16
ATOM     16  C   ARG A   1      22.075  -4.594  43.868  0.00  0.00    +0.224 C 
ATOM     17  O   ARG A   1      20.937  -4.278  44.227  0.00  0.00    -0.287 OA
ENDBRANCH  13  16
ENDBRANCH  12  13
ENDBRANCH  11  12
ENDBRANCH  10  11
ENDBRANCH   1  10
TORSDOF 6
REMARK  Name = ../refined-set-2016/2fxu/2fxu_pocket.pdb
REMARK  205 active torsions:
REMARK  status: ('A' for Active; 'I' for Inactive)
REMARK    1  A    between atoms: _1  and  _3
REMARK    2  A    between atoms: _3  and  _4
REMARK    3  A    between atoms: _3  and  _6
REMARK    4  A    between atoms: _6  and  _7
REMARK    5  A    between atoms: _10  and  _12
REMARK    6  A    between atoms: _12  and  _13
REMARK    7  A    between atoms: _12  and  _15
REMARK    8  A    between atoms: _15  and  _16
REMARK    9  A    between atoms: _19  and  _21
REMARK   10  A    between atoms: _21  and  _22
REMARK   11  A    between atoms: _21  and  _24
REMARK   12  A    between atoms: _24  and  _25
REMARK   13  A    between atoms: _28  and  _30
REMARK   14  A    between atoms: _30  and  _31
REMARK   15  A    between atoms: _30  and  _33
REMARK   16  A    between atoms: _33  and  _34
REMARK   17  A    between atoms: _34  and  _35
REMARK   18  A    between atoms: _39  and  _40
REMARK   19  A    between atoms: _45  and  _47
REMARK   20  A    between atoms: _47  and  _48
REMARK   21  A    between atoms: _47  and  _50
REMARK   22  A    between atoms: _50  and  _51
REMARK   23  A    between atoms: _54  and  _56
REMARK   24  A    between atoms: _56  and  _57
REMARK   25  A    between atoms: _56  and  _59
REMARK   26  A    between atoms: _59  and  _60
REMARK   27  A    between atoms: _65  and  _67
REMARK   28  A    between atoms: _67  and  _68
REMARK   29  A    between atoms: _67  and  _70
REMARK   30  A    between atoms: _70  and  _71
REMARK   31  A    between atoms: _71  and  _72
REMARK   32  A    between atoms: _72  and  _73
REMARK   33  A    between atoms: _73  and  _74
REMARK   34  A    between atoms: _78  and  _80
REMARK   35  A    between atoms: _80  and  _81
REMARK   36  A    between atoms: _80  and  _83
REMARK   37  A    between atoms: _83  and  _84
REMARK   38  A    between atoms: _84  and  _85
REMARK   39  A    between atoms: _85  and  _86
REMARK   40  A    between atoms: _95  and  _97
REMARK   41  A    between atoms: _97  and  _98
REMARK   42  A    between atoms: _97  and  _100
REMARK   43  A    between atoms: _100  and  _101
REMARK   44  A    between atoms: _106  and  _107
REMARK   45  A    between atoms: _109  and  _111
REMARK   46  A    between atoms: _111  and  _112
REMARK   47  A    between atoms: _111  and  _114
REMARK   48  A    between atoms: _117  and  _119
REMARK   49  A    between atoms: _119  and  _120
REMARK   50  A    between atoms: _123  and  _125
REMARK   51  A    between atoms: _125  and  _126
REMARK   52  A    between atoms: _125  and  _128
REMARK   53  A    between atoms: _128  and  _129
REMARK   54  A    between atoms: _132  and  _134
REMARK   55  A    between atoms: _134  and  _135
REMARK   56  A    between atoms: _134  and  _137
REMARK   57  A    between atoms: _137  and  _138
REMARK   58  A    between atoms: _138  and  _139
REMARK   59  A    between atoms: _144  and  _146
REMARK   60  A    between atoms: _146  and  _147
REMARK   61  A    between atoms: _150  and  _152
REMARK   62  A    between atoms: _152  and  _153
REMARK   63  A    between atoms: _152  and  _155
REMARK   64  A    between atoms: _158  and  _160
REMARK   65  A    between atoms: _160  and  _161
REMARK   66  A    between atoms: _160  and  _163
REMARK   67  A    between atoms: _163  and  _164
REMARK   68  A    between atoms: _167  and  _169
REMARK   69  A    between atoms: _169  and  _170
REMARK   70  A    between atoms: _169  and  _172
REMARK   71  A    between atoms: _172  and  _173
REMARK   72  A    between atoms: _175  and  _177
REMARK   73  A    between atoms: _177  and  _178
REMARK   74  A    between atoms: _177  and  _180
REMARK   75  A    between atoms: _180  and  _181
REMARK   76  A    between atoms: _184  and  _186
REMARK   77  A    between atoms: _186  and  _187
REMARK   78  A    between atoms: _186  and  _189
REMARK   79  A    between atoms: _189  and  _190
REMARK   80  A    between atoms: _195  and  _196
REMARK   81  A    between atoms: _198  and  _200
REMARK   82  A    between atoms: _200  and  _201
REMARK   83  A    between atoms: _204  and  _206
REMARK   84  A    between atoms: _206  and  _207
REMARK   85  A    between atoms: _206  and  _209
REMARK   86  A    between atoms: _209  and  _210
REMARK   87  A    between atoms: _212  and  _214
REMARK   88  A    between atoms: _214  and  _215
REMARK   89  A    between atoms: _217  and  _219
REMARK   90  A    between atoms: _219  and  _220
REMARK   91  A    between atoms: _219  and  _222
REMARK   92  A    between atoms: _222  and  _223
REMARK   93  A    between atoms: _223  and  _224
REMARK   94  A    between atoms: _224  and  _225
REMARK   95  A    between atoms: _234  and  _236
REMARK   96  A    between atoms: _236  and  _237
REMARK   97  A    between atoms: _236  and  _239
REMARK   98  A    between atoms: _239  and  _240
REMARK   99  A    between atoms: _243  and  _245
REMARK  100  A    between atoms: _245  and  _246
REMARK  101  A    between atoms: _245  and  _248
REMARK  102  A    between atoms: _248  and  _249
REMARK  103  A    between atoms: _252  and  _254
REMARK  104  A    between atoms: _254  and  _255
REMARK  105  A    between atoms: _254  and  _257
REMARK  106  A    between atoms: _261  and  _262
REMARK  107  A    between atoms: _267  and  _269
REMARK  108  A    between atoms: _269  and  _270
REMARK  109  A    between atoms: _269  and  _272
REMARK  110  A    between atoms: _272  and  _273
REMARK  111  A    between atoms: _276  and  _278
REMARK  112  A    between atoms: _278  and  _279
REMARK  113  A    between atoms: _278  and  _281
REMARK  114  A    between atoms: _281  and  _282
REMARK  115  A    between atoms: _287  and  _288
REMARK  116  A    between atoms: _290  and  _292
REMARK  117  A    between atoms: _292  and  _293
REMARK  118  A    between atoms: _292  and  _295
REMARK  119  A    between atoms: _295  and  _296
REMARK  120  A    between atoms: _296  and  _297
REMARK  121  A    between atoms: _300  and  _302
REMARK  122  A    between atoms: _302  and  _303
REMARK  123  A    between atoms: _305  and  _307
REMARK  124  A    between atoms: _307  and  _308
REMARK  125  A    between atoms: _307  and  _310
REMARK  126  A    between atoms: _310  and  _311
REMARK  127  A    between atoms: _316  and  _317
REMARK  128  A    between atoms: _319  and  _321
REMARK  129  A    between atoms: _321  and  _322
REMARK  130  A    between atoms: _325  and  _327
REMARK  131  A    between atoms: _327  and  _328
REMARK  132  A    between atoms: _327  and  _330
REMARK  133  A    between atoms: _330  and  _331
REMARK  134  A    between atoms: _335  and  _336
REMARK  135  A    between atoms: _341  and  _343
REMARK  136  A    between atoms: _343  and  _344
REMARK  137  A    between atoms: _343  and  _346
REMARK  138  A    between atoms: _346  and  _347
REMARK  139  A    between atoms: _352  and  _354
REMARK  140  A    between atoms: _354  and  _355
REMARK  141  A    between atoms: _358  and  _360
REMARK  142  A    between atoms: _360  and  _361
REMARK  143  A    between atoms: _360  and  _363
REMARK  144  A    between atoms: _363  and  _364
REMARK  145  A    between atoms: _367  and  _369
REMARK  146  A    between atoms: _369  and  _370
REMARK  147  A    between atoms: _369  and  _372
REMARK  148  A    between atoms: _372  and  _373
REMARK  149  A    between atoms: _376  and  _378
REMARK  150  A    between atoms: _378  and  _379
REMARK  151  A    between atoms: _381  and  _383
REMARK  152  A    between atoms: _383  and  _384
REMARK  153  A    between atoms: _386  and  _388
REMARK  154  A    between atoms: _388  and  _389
REMARK  155  A    between atoms: _388  and  _391
REMARK  156  A    between atoms: _391  and  _392
REMARK  157  A    between atoms: _394  and  _396
REMARK  158  A    between atoms: _396  and  _397
REMARK  159  A    between atoms: _396  and  _399
REMARK  160  A    between atoms: _399  and  _400
REMARK  161  A    between atoms: _403  and  _405
REMARK  162  A    between atoms: _405  and  _406
REMARK  163  A    between atoms: _405  and  _408
REMARK  164  A    between atoms: _408  and  _409
REMARK  165  A    between atoms: _412  and  _414
REMARK  166  A    between atoms: _414  and  _415
REMARK  167  A    between atoms: _418  and  _420
REMARK  168  A    between atoms: _420  and  _421
REMARK  169  A    between atoms: _420  and  _423
REMARK  170  A    between atoms: _423  and  _424
REMARK  171  A    between atoms: _426  and  _428
REMARK  172  A    between atoms: _428  and  _429
REMARK  173  A    between atoms: _428  and  _431
REMARK  174  A    between atoms: _431  and  _432
REMARK  175  A    between atoms: _435  and  _437
REMARK  176  A    between atoms: _437  and  _438
REMARK  177  A    between atoms: _437  and  _440
REMARK  178  A    between atoms: _440  and  _441
REMARK  179  A    between atoms: _443  and  _445
REMARK  180  A    between atoms: _445  and  _446
REMARK  181  A    between atoms: _445  and  _448
REMARK  182  A    between atoms: _448  and  _449
REMARK  183  A    between atoms: _452  and  _454
REMARK  184  A    between atoms: _454  and  _455
REMARK  185  A    between atoms: _454  and  _457
REMARK  186  A    between atoms: _457  and  _458
REMARK  187  A    between atoms: _464  and  _466
REMARK  188  A    between atoms: _466  and  _467
REMARK  189  A    between atoms: _466  and  _469
REMARK  190  A    between atoms: _469  and  _470
REMARK  191  A    between atoms: _470  and  _471
REMARK  192  A    between atoms: _476  and  _478
REMARK  193  A    between atoms: _478  and  _479
REMARK  194  A    between atoms: _478  and  _481
REMARK  195  A    between atoms: _481  and  _482
REMARK  196  A    between atoms: _482  and  _483
REMARK  197  A    between atoms: _488  and  _490
REMARK  198  A    between atoms: _490  and  _491
REMARK  199  A    between atoms: _490  and  _493
REMARK  200  A    between atoms: _493  and  _494
REMARK  201  A    between atoms: _494  and  _495
REMARK  202  A    between atoms: _497  and  _499
REMARK  203  A    between atoms: _499  and  _500
REMARK  204  A    between atoms: _499  and  _502
REMARK  205  A    between atoms: _502  and  _503
REMARK                            x       y       z     vdW  Elec       q    Type
REMARK                         _______ _______ _______ _____ _____    ______ ____
ROOT
ATOM      1  C   SER A   9      12.414 -10.819  25.943  0.00  0.00    +0.243 C 
ATOM      2  N   LEU A  10      13.179 -11.846  26.289  0.00  0.00    -0.297 N 
ATOM      3  H   LEU A  10      14.020 -11.696  26.883  0.00  0.00    +0.150 HD
ATOM      4  O   SER A   9      11.424 -10.958  25.200  0.00  0.00    -0.273 OA
ENDROOT
BRANCH   1   5
ATOM      5  CA  SER A   9      12.745  -9.475  26.541  0.00  0.00    +0.178 C 
BRANCH   5   8
ATOM      6  C   LEU A   8      12.311  -9.979  28.846  0.00  0.00    +0.241 C 
ATOM      7  O   LEU A   8      11.163 -10.274  28.531  0.00  0.00    -0.273 OA
ATOM      8  N   SER A   9      13.166  -9.534  27.939  0.00  0.00    -0.295 N 
ATOM      9  H   SER A   9      14.121  -9.231  28.217  0.00  0.00    +0.150 HD
BRANCH   6  10
ATOM     10  CA  LEU A   8      12.781 -10.132  30.272  0.00  0.00    +0.149 C 
BRANCH  10  12
ATOM     11  C   VAL A   7      14.475 -11.828  29.787  0.00  0.00    +0.241 C 
ATOM     12  N   LEU A   8      14.173 -10.658  30.331  0.00  0.00    -0.297 N 
ATOM     13  H   LEU A   8      14.914 -10.102  30.803  0.00  0.00    +0.150 HD
ATOM     14  O   VAL A   7      13.627 -12.527  29.272  0.00  0.00    -0.273 OA
BRANCH  11  15
ATOM     15  CA  VAL A   7      15.945 -12.232  29.766  0.00  0.00    +0.149 C 
BRANCH  15  17
ATOM     16  C   ALA A   6      16.719 -10.501  28.251  0.00  0.00    +0.241 C 
ATOM     17  N   VAL A   7      16.745 -11.043  29.467  0.00  0.00    -0.297 N 
ATOM     18  H   VAL A   7      17.337 -10.619  30.209  0.00  0.00    +0.150 HD
ATOM     19  O   ALA A   6      15.991 -10.916  27.359  0.00  0.00    -0.273 OA
BRANCH  16  20
ATOM     20  CA  ALA A   6      17.610  -9.331  27.979  0.00  0.00    +0.149 C 
ATOM     21  CB  ALA A   6      18.955  -9.830  27.496  0.00  0.00    +0.031 C 
BRANCH  20  24
ATOM     22  C   GLN A   5      16.687  -7.909  29.707  0.00  0.00    +0.241 C 
ATOM     23  O   GLN A   5      15.566  -8.124  29.293  0.00  0.00    -0.273 OA
ATOM     24  N   ALA A   6      17.754  -8.518  29.185  0.00  0.00    -0.297 N 
ATOM     25  H   ALA A   6      18.686  -8.414  29.635  0.00  0.00    +0.150 HD
BRANCH  22  26
ATOM     26  CA  GLN A   5      16.869  -6.939  30.850  0.00  0.00    +0.149 C 
BRANCH  26  29
ATOM     27  C   ILE A   4      17.215  -8.638  32.602  0.00  0.00    +0.241 C 
ATOM     28  O   ILE A   4      16.344  -9.372  32.155  0.00  0.00    -0.273 OA
ATOM     29  N   GLN A   5      17.596  -7.514  32.007  0.00  0.00    -0.297 N 
ATOM     30  H   GLN A   5      18.437  -7.018  32.366  0.00  0.00    +0.150 HD
BRANCH  27  31
ATOM     31  CA  ILE A   4      17.988  -8.979  33.864  0.00  0.00    +0.149 C 
BRANCH  31  34
ATOM     32  C   ALA A   3      16.479  -8.244  35.623  0.00  0.00    +0.241 C 
ATOM     33  O   ALA A   3      16.657  -7.070  35.351  0.00  0.00    -0.273 OA
ATOM     34  N   ILE A   4      17.071  -9.231  34.969  0.00  0.00    -0.297 N 
ATOM     35  H   ILE A   4      16.877 -10.213  35.251  0.00  0.00    +0.150 HD
BRANCH  32  36
ATOM     36  CA  ALA A   3      15.480  -8.647  36.712  0.00  0.00    +0.149 C 
ATOM     37  CB  ALA A   3      14.101  -8.613  36.146  0.00  0.00    +0.031 C 
BRANCH  36  40
ATOM     38  C   VAL A   2      15.990  -7.998  39.061  0.00  0.00    +0.241 C 
ATOM     39  O   VAL A   2      16.452  -9.094  39.388  0.00  0.00    -0.273 OA
ATOM     40  N   ALA A   3      15.571  -7.695  37.829  0.00  0.00    -0.297 N 
ATOM     41  H   ALA A   3      15.288  -6.711  37.646  0.00  0.00    +0.150 HD
BRANCH  38  42
ATOM     42  CA  VAL A   2      15.848  -6.868  40.083  0.00  0.00    +0.148 C 
BRANCH  42  44
ATOM     43  C   TYR A   1      13.850  -6.650  41.509  0.00  0.00    +0.239 C 
ATOM     44  N   VAL A   2      14.967  -7.302  41.215  0.00  0.00    -0.297 N 
ATOM     45  H   VAL A   2      15.237  -8.131  41.782  0.00  0.00    +0.150 HD
ATOM     46  O   TYR A   1      13.542  -5.570  41.014  0.00  0.00    -0.274 OA
BRANCH  43  47
ATOM     47  CA  TYR A   1      12.961  -7.254  42.577  0.00  0.00    +0.149 C 
BRANCH  47  48
ATOM     48  N   TYR A   1      12.318  -6.157  43.294  0.00  0.00    -0.238 NA
ATOM     49  H   TYR A   1      12.218  -5.237  42.819  0.00  0.00    +0.142 HD
ENDBRANCH  47  48
BRANCH  47  50
ATOM     50  CB  TYR A   1      11.904  -8.130  41.934  0.00  0.00    +0.053 C 
BRANCH  50  51
ATOM     51  CG  TYR A   1      12.421  -9.423  41.332  0.00  0.00    -0.020 A 
ATOM     52  CD2 TYR A   1      12.606 -10.557  42.124  0.00  0.00    -0.001 A 
ATOM     53  CE2 TYR A   1      13.051 -11.753  41.575  0.00  0.00    +0.036 A 
ATOM     54  CZ  TYR A   1      13.338 -11.836  40.218  0.00  0.00    +0.134 A 
ATOM     55  CE1 TYR A   1      13.137 -10.733  39.398  0.00  0.00    +0.036 A 
ATOM     56  CD1 TYR A   1      12.684  -9.527  39.967  0.00  0.00    -0.001 A 
BRANCH  54  57
ATOM     57  OH  TYR A   1      13.760 -13.045  39.746  0.00  0.00    -0.506 OA
ATOM     58  HH  TYR A   1      14.643 -12.938  39.312  0.00  0.00    +0.292 HD
ENDBRANCH  54  57
ENDBRANCH  50  51
ENDBRANCH  47  50
ENDBRANCH  43  47
ENDBRANCH  42  44
BRANCH  42  59
ATOM     59  CB  VAL A   2      17.236  -6.447  40.560  0.00  0.00    +0.027 C 
ATOM     60  CG2 VAL A   2      17.118  -5.369  41.621  0.00  0.00    +0.002 C 
ATOM     61  CG1 VAL A   2      18.102  -5.961  39.407  0.00  0.00    +0.002 C 
ENDBRANCH  42  59
ENDBRANCH  38  42
ENDBRANCH  36  40
ENDBRANCH  32  36
ENDBRANCH  31  34
BRANCH  31  62
ATOM     62  CB  ILE A   4      18.937 -10.157  33.629  0.00  0.00    +0.027 C 
ATOM     63  CG2 ILE A   4      19.830  -9.901  32.397  0.00  0.00    +0.002 C 
BRANCH  62  64
ATOM     64  CG1 ILE A   4      19.798 -10.358  34.880  0.00  0.00    +0.002 C 
ATOM     65  CD1 ILE A   4      20.578 -11.621  34.798  0.00  0.00    +0.000 C 
ENDBRANCH  62  64
ENDBRANCH  31  62
ENDBRANCH  27  31
ENDBRANCH  26  29
BRANCH  26  66
ATOM     66  CB  GLN A   5      17.621  -5.683  30.361  0.00  0.00    +0.039 C 
BRANCH  66  67
ATOM     67  CG  GLN A   5      17.515  -4.507  31.361  0.00  0.00    +0.087 C 
BRANCH  67  68
ATOM     68  CD  GLN A   5      18.723  -3.609  31.476  0.00  0.00    +0.219 C 
ATOM     69  NE2 GLN A   5      18.689  -2.714  32.444  0.00  0.00    -0.329 N 
ATOM     70 HE21 GLN A   5      17.871  -2.672  33.085  0.00  0.00    +0.145 HD
ATOM     71 HE22 GLN A   5      19.480  -2.050  32.566  0.00  0.00    +0.145 HD
ATOM     72  OE1 GLN A   5      19.673  -3.700  30.687  0.00  0.00    -0.275 OA
ENDBRANCH  67  68
ENDBRANCH  66  67
ENDBRANCH  26  66
ENDBRANCH  22  26
ENDBRANCH  20  24
ENDBRANCH  16  20
ENDBRANCH  15  17
BRANCH  15  73
ATOM     73  CB  VAL A   7      16.391 -12.927  31.099  0.00  0.00    +0.027 C 
ATOM     74  CG2 VAL A   7      15.576 -14.160  31.366  0.00  0.00    +0.002 C 
ATOM     75  CG1 VAL A   7      17.858 -13.268  31.057  0.00  0.00    +0.002 C 
ENDBRANCH  15  73
ENDBRANCH  11  15
ENDBRANCH  10  12
BRANCH  10  76
ATOM     76  CB  LEU A   8      12.669  -8.794  30.982  0.00  0.00    +0.029 C 
BRANCH  76  77
ATOM     77  CG  LEU A   8      12.780  -8.769  32.507  0.00  0.00    +0.002 C 
ATOM     78  CD2 LEU A   8      11.679  -9.626  33.171  0.00  0.00    +0.000 C 
ATOM     79  CD1 LEU A   8      12.692  -7.319  32.958  0.00  0.00    +0.000 C 
ENDBRANCH  76  77
ENDBRANCH  10  76
ENDBRANCH   6  10
ENDBRANCH   5   8
BRANCH   5  80
ATOM     80  CB  SER A   9      13.826  -8.871  25.691  0.00  0.00    +0.166 C 
BRANCH  80  81
ATOM     81  OG  SER A   9      13.940  -7.527  26.034  0.00  0.00    -0.380 OA
ATOM     82  H   SER A   9      14.649  -7.107  25.485  0.00  0.00    +0.211 HD
ENDBRANCH  80  81
ENDBRANCH   5  80
ENDBRANCH   1   5
BRANCH   2  83
ATOM     83  CA  LEU A  10      12.831 -13.195  25.828  0.00  0.00    +0.149 C 
BRANCH  83  84
ATOM     84  C   LEU A  10      11.460 -13.584  26.344  0.00  0.00    +0.241 C 
ATOM     85  N   TYR A  11      11.209 -13.322  27.632  0.00  0.00    -0.297 N 
ATOM     86  H   TYR A  11      11.936 -12.867  28.221  0.00  0.00    +0.150 HD
ATOM     87  O   LEU A  10      10.626 -14.121  25.603  0.00  0.00    -0.273 OA
BRANCH  85  88
ATOM     88  CA  TYR A  11       9.902 -13.678  28.218  0.00  0.00    +0.153 C 
BRANCH  88  89
ATOM     89  C   TYR A  11       8.784 -12.952  27.491  0.00  0.00    +0.241 C 
ATOM     90  O   TYR A  11       7.715 -13.501  27.322  0.00  0.00    -0.273 OA
ATOM     91  N   ALA A  12       9.006 -11.714  27.097  0.00  0.00    -0.297 N 
ATOM     92  H   ALA A  12       9.945 -11.294  27.247  0.00  0.00    +0.150 HD
BRANCH  91  93
ATOM     93  CA  ALA A  12       7.968 -10.923  26.458  0.00  0.00    +0.149 C 
ATOM     94  CB  ALA A  12       8.435  -9.491  26.245  0.00  0.00    +0.031 C 
BRANCH  93  95
ATOM     95  C   ALA A  12       7.555 -11.549  25.145  0.00  0.00    +0.241 C 
ATOM     96  O   ALA A  12       6.420 -11.371  24.736  0.00  0.00    -0.273 OA
ATOM     97  N   SER A  13       8.444 -12.322  24.520  0.00  0.00    -0.295 N 
ATOM     98  H   SER A  13       9.379 -12.442  24.959  0.00  0.00    +0.150 HD
BRANCH  97  99
ATOM     99  CA  SER A  13       8.189 -13.003  23.272  0.00  0.00    +0.178 C 
BRANCH  99 100
ATOM    100  C   SER A  13       7.555 -14.387  23.506  0.00  0.00    +0.243 C 
ATOM    101  N   GLY A  14       7.305 -14.775  24.763  0.00  0.00    -0.295 N 
ATOM    102  H   GLY A  14       7.552 -14.128  25.539  0.00  0.00    +0.150 HD
ATOM    103  O   SER A  13       7.348 -15.120  22.538  0.00  0.00    -0.273 OA
BRANCH 101 104
ATOM    104  CA  GLY A  14       6.700 -16.067  25.098  0.00  0.00    +0.176 C 
BRANCH 104 105
ATOM    105  C   GLY A  14       7.635 -17.248  25.175  0.00  0.00    +0.243 C 
ATOM    106  N   ARG A  15       8.922 -16.983  25.310  0.00  0.00    -0.297 N 
ATOM    107  H   ARG A  15       9.212 -15.996  25.464  0.00  0.00    +0.150 HD
ATOM    108  O   GLY A  14       7.198 -18.406  25.144  0.00  0.00    -0.273 OA
BRANCH 106 109
ATOM    109  CA  ARG A  15       9.954 -18.010  25.253  0.00  0.00    +0.149 C 
BRANCH 109 110
ATOM    110  C   ARG A  15      10.755 -18.062  26.529  0.00  0.00    +0.241 C 
ATOM    111  O   ARG A  15      10.943 -17.031  27.192  0.00  0.00    -0.273 OA
ATOM    112  N   THR A  16      11.274 -19.252  26.829  0.00  0.00    -0.295 N 
ATOM    113  H   THR A  16      10.990 -20.077  26.263  0.00  0.00    +0.150 HD
BRANCH 112 114
ATOM    114  CA  THR A  16      12.222 -19.446  27.916  0.00  0.00    +0.176 C 
BRANCH 114 115
ATOM    115  C   THR A  16      13.610 -19.936  27.408  0.00  0.00    +0.243 C 
ATOM    116  O   THR A  16      14.564 -19.970  28.183  0.00  0.00    -0.273 OA
ATOM    117  N   THR A  17      13.729 -20.283  26.131  0.00  0.00    -0.296 N 
ATOM    118  H   THR A  17      12.871 -20.313  25.544  0.00  0.00    +0.150 HD
BRANCH 117 119
ATOM    119  CA  THR A  17      15.007 -20.624  25.513  0.00  0.00    +0.164 C 
BRANCH 119 120
ATOM    120  C   THR A  17      15.173 -19.828  24.224  0.00  0.00    +0.229 C 
ATOM    121  O   THR A  17      14.246 -19.704  23.434  0.00  0.00    -0.286 OA
ENDBRANCH 119 120
BRANCH 119 122
ATOM    122  CB  THR A  17      15.168 -22.143  25.270  0.00  0.00    +0.136 C 
ATOM    123  CG2 THR A  17      16.437 -22.470  24.530  0.00  0.00    +0.034 C 
BRANCH 122 124
ATOM    124  OG1 THR A  17      15.167 -22.818  26.535  0.00  0.00    -0.382 OA
ATOM    125  HG1 THR A  17      15.270 -23.792  26.388  0.00  0.00    +0.210 HD
ENDBRANCH 122 124
ENDBRANCH 119 122
ENDBRANCH 117 119
ENDBRANCH 114 115
BRANCH 114 126
ATOM    126  CB  THR A  16      11.633 -20.412  28.960  0.00  0.00    +0.137 C 
ATOM    127  CG2 THR A  16      10.338 -19.851  29.530  0.00  0.00    +0.034 C 
BRANCH 126 128
ATOM    128  OG1 THR A  16      11.353 -21.652  28.317  0.00  0.00    -0.382 OA
ATOM    129  HG1 THR A  16      12.190 -22.025  27.944  0.00  0.00    +0.210 HD
ENDBRANCH 126 128
ENDBRANCH 114 126
ENDBRANCH 112 114
ENDBRANCH 109 110
BRANCH 109 130
ATOM    130  CB  ARG A  15      10.940 -17.654  24.144  0.00  0.00    +0.033 C 
BRANCH 130 131
ATOM    131  CG  ARG A  15      10.367 -17.819  22.766  0.00  0.00    +0.045 C 
BRANCH 131 132
ATOM    132  CD  ARG A  15      11.358 -17.358  21.710  0.00  0.00    +0.174 C 
BRANCH 132 133
ATOM    133  NE  ARG A  15      10.852 -17.628  20.363  0.00  0.00    -0.265 N 
ATOM    134  HE  ARG A  15      11.253 -18.436  19.845  0.00  0.00    +0.259 HD
ATOM    135  CZ  ARG A  15       9.916 -16.908  19.761  0.00  0.00    +0.342 C 
ATOM    136  NH2 ARG A  15       9.394 -15.839  20.334  0.00  0.00    -0.292 N 
ATOM    137 HH21 ARG A  15       9.716 -15.545  21.278  0.00  0.00    +0.255 HD
ATOM    138 HH22 ARG A  15       8.661 -15.291  19.841  0.00  0.00    +0.255 HD
ATOM    139  NH1 ARG A  15       9.496 -17.242  18.561  0.00  0.00    -0.292 N 
ATOM    140 HH11 ARG A  15       8.761 -16.675  18.091  0.00  0.00    +0.255 HD
ATOM    141 HH12 ARG A  15       9.898 -18.073  18.082  0.00  0.00    +0.255 HD
ENDBRANCH 132 133
ENDBRANCH 131 132
ENDBRANCH 130 131
ENDBRANCH 109 130
ENDBRANCH 106 109
ENDBRANCH 104 105
ENDBRANCH 101 104
ENDBRANCH  99 100
BRANCH  99 142
ATOM    142  CB  SER A  13       9.487 -13.160  22.478  0.00  0.00    +0.166 C 
BRANCH 142 143
ATOM    143  OG  SER A  13      10.269 -14.261  22.947  0.00  0.00    -0.380 OA
ATOM    144  H   SER A  13      10.502 -14.117  23.898  0.00  0.00    +0.211 HD
ENDBRANCH 142 143
ENDBRANCH  99 142
ENDBRANCH  97  99
ENDBRANCH  93  95
ENDBRANCH  91  93
ENDBRANCH  88  89
BRANCH  88 145
ATOM    145  CB  TYR A  11       9.831 -13.332  29.693  0.00  0.00    +0.055 C 
BRANCH 145 146
ATOM    146  CG  TYR A  11      10.760 -14.104  30.623  0.00  0.00    -0.020 A 
ATOM    147  CD2 TYR A  11      10.854 -13.742  31.968  0.00  0.00    -0.001 A 
ATOM    148  CE2 TYR A  11      11.673 -14.443  32.861  0.00  0.00    +0.036 A 
ATOM    149  CZ  TYR A  11      12.388 -15.509  32.428  0.00  0.00    +0.134 A 
ATOM    150  CE1 TYR A  11      12.350 -15.887  31.084  0.00  0.00    +0.036 A 
ATOM    151  CD1 TYR A  11      11.503 -15.208  30.200  0.00  0.00    -0.001 A 
BRANCH 149 152
ATOM    152  OH  TYR A  11      13.179 -16.126  33.362  0.00  0.00    -0.506 OA
ATOM    153  HH  TYR A  11      13.653 -16.886  32.941  0.00  0.00    +0.292 HD
ENDBRANCH 149 152
ENDBRANCH 145 146
ENDBRANCH  88 145
ENDBRANCH  85  88
ENDBRANCH  83  84
BRANCH  83 154
ATOM    154  CB  LEU A  10      13.904 -14.221  26.237  0.00  0.00    +0.029 C 
BRANCH 154 155
ATOM    155  CG  LEU A  10      13.699 -15.586  25.597  0.00  0.00    +0.002 C 
ATOM    156  CD2 LEU A  10      14.413 -16.625  26.416  0.00  0.00    +0.000 C 
ATOM    157  CD1 LEU A  10      14.158 -15.590  24.182  0.00  0.00    +0.000 C 
ENDBRANCH 154 155
ENDBRANCH  83 154
ENDBRANCH   2  83
TORSDOF 63
REMARK  Name = ../refined-set-2016/2fxu/2fxu_pocket.pdb
REMARK  205 active torsions:
REMARK  status: ('A' for Active; 'I' for Inactive)
REMARK    1  A    between atoms: _1  and  _3
REMARK    2  A    between atoms: _3  and  _4
REMARK    3  A    between atoms: _3  and  _6
REMARK    4  A    between atoms: _6  and  _7
REMARK    5  A    between atoms: _10  and  _12
REMARK    6  A    between atoms: _12  and  _13
REMARK    7  A    between atoms: _12  and  _15
REMARK    8  A    between atoms: _15  and  _16
REMARK    9  A    between atoms: _19  and  _21
REMARK   10  A    between atoms: _21  and  _22
REMARK   11  A    between atoms: _21  and  _24
REMARK   12  A    between atoms: _24  and  _25
REMARK   13  A    between atoms: _28  and  _30
REMARK   14  A    between atoms: _30  and  _31
REMARK   15  A    between atoms: _30  and  _33
REMARK   16  A    between atoms: _33  and  _34
REMARK   17  A    between atoms: _34  and  _35
REMARK   18  A    between atoms: _39  and  _40
REMARK   19  A    between atoms: _45  and  _47
REMARK   20  A    between atoms: _47  and  _48
REMARK   21  A    between atoms: _47  and  _50
REMARK   22  A    between atoms: _50  and  _51
REMARK   23  A    between atoms: _54  and  _56
REMARK   24  A    between atoms: _56  and  _57
REMARK   25  A    between atoms: _56  and  _59
REMARK   26  A    between atoms: _59  and  _60
REMARK   27  A    between atoms: _65  and  _67
REMARK   28  A    between atoms: _67  and  _68
REMARK   29  A    between atoms: _67  and  _70
REMARK   30  A    between atoms: _70  and  _71
REMARK   31  A    between atoms: _71  and  _72
REMARK   32  A    between atoms: _72  and  _73
REMARK   33  A    between atoms: _73  and  _74
REMARK   34  A    between atoms: _78  and  _80
REMARK   35  A    between atoms: _80  and  _81
REMARK   36  A    between atoms: _80  and  _83
REMARK   37  A    between atoms: _83  and  _84
REMARK   38  A    between atoms: _84  and  _85
REMARK   39  A    between atoms: _85  and  _86
REMARK   40  A    between atoms: _95  and  _97
REMARK   41  A    between atoms: _97  and  _98
REMARK   42  A    between atoms: _97  and  _100
REMARK   43  A    between atoms: _100  and  _101
REMARK   44  A    between atoms: _106  and  _107
REMARK   45  A    between atoms: _109  and  _111
REMARK   46  A    between atoms: _111  and  _112
REMARK   47  A    between atoms: _111  and  _114
REMARK   48  A    between atoms: _117  and  _119
REMARK   49  A    between atoms: _119  and  _120
REMARK   50  A    between atoms: _123  and  _125
REMARK   51  A    between atoms: _125  and  _126
REMARK   52  A    between atoms: _125  and  _128
REMARK   53  A    between atoms: _128  and  _129
REMARK   54  A    between atoms: _132  and  _134
REMARK   55  A    between atoms: _134  and  _135
REMARK   56  A    between atoms: _134  and  _137
REMARK   57  A    between atoms: _137  and  _138
REMARK   58  A    between atoms: _138  and  _139
REMARK   59  A    between atoms: _144  and  _146
REMARK   60  A    between atoms: _146  and  _147
REMARK   61  A    between atoms: _150  and  _152
REMARK   62  A    between atoms: _152  and  _153
REMARK   63  A    between atoms: _152  and  _155
REMARK   64  A    between atoms: _158  and  _160
REMARK   65  A    between atoms: _160  and  _161
REMARK   66  A    between atoms: _160  and  _163
REMARK   67  A    between atoms: _163  and  _164
REMARK   68  A    between atoms: _167  and  _169
REMARK   69  A    between atoms: _169  and  _170
REMARK   70  A    between atoms: _169  and  _172
REMARK   71  A    between atoms: _172  and  _173
REMARK   72  A    between atoms: _175  and  _177
REMARK   73  A    between atoms: _177  and  _178
REMARK   74  A    between atoms: _177  and  _180
REMARK   75  A    between atoms: _180  and  _181
REMARK   76  A    between atoms: _184  and  _186
REMARK   77  A    between atoms: _186  and  _187
REMARK   78  A    between atoms: _186  and  _189
REMARK   79  A    between atoms: _189  and  _190
REMARK   80  A    between atoms: _195  and  _196
REMARK   81  A    between atoms: _198  and  _200
REMARK   82  A    between atoms: _200  and  _201
REMARK   83  A    between atoms: _204  and  _206
REMARK   84  A    between atoms: _206  and  _207
REMARK   85  A    between atoms: _206  and  _209
REMARK   86  A    between atoms: _209  and  _210
REMARK   87  A    between atoms: _212  and  _214
REMARK   88  A    between atoms: _214  and  _215
REMARK   89  A    between atoms: _217  and  _219
REMARK   90  A    between atoms: _219  and  _220
REMARK   91  A    between atoms: _219  and  _222
REMARK   92  A    between atoms: _222  and  _223
REMARK   93  A    between atoms: _223  and  _224
REMARK   94  A    between atoms: _224  and  _225
REMARK   95  A    between atoms: _234  and  _236
REMARK   96  A    between atoms: _236  and  _237
REMARK   97  A    between atoms: _236  and  _239
REMARK   98  A    between atoms: _239  and  _240
REMARK   99  A    between atoms: _243  and  _245
REMARK  100  A    between atoms: _245  and  _246
REMARK  101  A    between atoms: _245  and  _248
REMARK  102  A    between atoms: _248  and  _249
REMARK  103  A    between atoms: _252  and  _254
REMARK  104  A    between atoms: _254  and  _255
REMARK  105  A    between atoms: _254  and  _257
REMARK  106  A    between atoms: _261  and  _262
REMARK  107  A    between atoms: _267  and  _269
REMARK  108  A    between atoms: _269  and  _270
REMARK  109  A    between atoms: _269  and  _272
REMARK  110  A    between atoms: _272  and  _273
REMARK  111  A    between atoms: _276  and  _278
REMARK  112  A    between atoms: _278  and  _279
REMARK  113  A    between atoms: _278  and  _281
REMARK  114  A    between atoms: _281  and  _282
REMARK  115  A    between atoms: _287  and  _288
REMARK  116  A    between atoms: _290  and  _292
REMARK  117  A    between atoms: _292  and  _293
REMARK  118  A    between atoms: _292  and  _295
REMARK  119  A    between atoms: _295  and  _296
REMARK  120  A    between atoms: _296  and  _297
REMARK  121  A    between atoms: _300  and  _302
REMARK  122  A    between atoms: _302  and  _303
REMARK  123  A    between atoms: _305  and  _307
REMARK  124  A    between atoms: _307  and  _308
REMARK  125  A    between atoms: _307  and  _310
REMARK  126  A    between atoms: _310  and  _311
REMARK  127  A    between atoms: _316  and  _317
REMARK  128  A    between atoms: _319  and  _321
REMARK  129  A    between atoms: _321  and  _322
REMARK  130  A    between atoms: _325  and  _327
REMARK  131  A    between atoms: _327  and  _328
REMARK  132  A    between atoms: _327  and  _330
REMARK  133  A    between atoms: _330  and  _331
REMARK  134  A    between atoms: _335  and  _336
REMARK  135  A    between atoms: _341  and  _343
REMARK  136  A    between atoms: _343  and  _344
REMARK  137  A    between atoms: _343  and  _346
REMARK  138  A    between atoms: _346  and  _347
REMARK  139  A    between atoms: _352  and  _354
REMARK  140  A    between atoms: _354  and  _355
REMARK  141  A    between atoms: _358  and  _360
REMARK  142  A    between atoms: _360  and  _361
REMARK  143  A    between atoms: _360  and  _363
REMARK  144  A    between atoms: _363  and  _364
REMARK  145  A    between atoms: _367  and  _369
REMARK  146  A    between atoms: _369  and  _370
REMARK  147  A    between atoms: _369  and  _372
REMARK  148  A    between atoms: _372  and  _373
REMARK  149  A    between atoms: _376  and  _378
REMARK  150  A    between atoms: _378  and  _379
REMARK  151  A    between atoms: _381  and  _383
REMARK  152  A    between atoms: _383  and  _384
REMARK  153  A    between atoms: _386  and  _388
REMARK  154  A    between atoms: _388  and  _389
REMARK  155  A    between atoms: _388  and  _391
REMARK  156  A    between atoms: _391  and  _392
REMARK  157  A    between atoms: _394  and  _396
REMARK  158  A    between atoms: _396  and  _397
REMARK  159  A    between atoms: _396  and  _399
REMARK  160  A    between atoms: _399  and  _400
REMARK  161  A    between atoms: _403  and  _405
REMARK  162  A    between atoms: _405  and  _406
REMARK  163  A    between atoms: _405  and  _408
REMARK  164  A    between atoms: _408  and  _409
REMARK  165  A    between atoms: _412  and  _414
REMARK  166  A    between atoms: _414  and  _415
REMARK  167  A    between atoms: _418  and  _420
REMARK  168  A    between atoms: _420  and  _421
REMARK  169  A    between atoms: _420  and  _423
REMARK  170  A    between atoms: _423  and  _424
REMARK  171  A    between atoms: _426  and  _428
REMARK  172  A    between atoms: _428  and  _429
REMARK  173  A    between atoms: _428  and  _431
REMARK  174  A    between atoms: _431  and  _432
REMARK  175  A    between atoms: _435  and  _437
REMARK  176  A    between atoms: _437  and  _438
REMARK  177  A    between atoms: _437  and  _440
REMARK  178  A    between atoms: _440  and  _441
REMARK  179  A    between atoms: _443  and  _445
REMARK  180  A    between atoms: _445  and  _446
REMARK  181  A    between atoms: _445  and  _448
REMARK  182  A    between atoms: _448  and  _449
REMARK  183  A    between atoms: _452  and  _454
REMARK  184  A    between atoms: _454  and  _455
REMARK  185  A    between atoms: _454  and  _457
REMARK  186  A    between atoms: _457  and  _458
REMARK  187  A    between atoms: _464  and  _466
REMARK  188  A    between atoms: _466  and  _467
REMARK  189  A    between atoms: _466  and  _469
REMARK  190  A    between atoms: _469  and  _470
REMARK  191  A    between atoms: _470  and  _471
REMARK  192  A    between atoms: _476  and  _478
REMARK  193  A    between atoms: _478  and  _479
REMARK  194  A    between atoms: _478  and  _481
REMARK  195  A    between atoms: _481  and  _482
REMARK  196  A    between atoms: _482  and  _483
REMARK  197  A    between atoms: _488  and  _490
REMARK  198  A    between atoms: _490  and  _491
REMARK  199  A    between atoms: _490  and  _493
REMARK  200  A    between atoms: _493  and  _494
REMARK  201  A    between atoms: _494  and  _495
REMARK  202  A    between atoms: _497  and  _499
REMARK  203  A    between atoms: _499  and  _500
REMARK  204  A    between atoms: _499  and  _502
REMARK  205  A    between atoms: _502  and  _503
REMARK                            x       y       z     vdW  Elec       q    Type
REMARK                         _______ _______ _______ _____ _____    ______ ____
ROOT
ATOM      1  CA  TYR A   7      18.003 -18.255  32.668  0.00  0.00    +0.153 C 
ENDROOT
BRANCH   1   2
ATOM      2  C   TYR A   7      19.163 -18.097  31.720  0.00  0.00    +0.241 C 
ATOM      3  N   ALA A   8      19.801 -16.935  31.804  0.00  0.00    -0.297 N 
ATOM      4  H   ALA A   8      19.478 -16.232  32.499  0.00  0.00    +0.150 HD
ATOM      5  O   TYR A   7      19.442 -18.980  30.912  0.00  0.00    -0.273 OA
BRANCH   3   6
ATOM      6  CA  ALA A   8      20.937 -16.615  30.954  0.00  0.00    +0.149 C 
ATOM      7  CB  ALA A   8      21.307 -15.190  31.147  0.00  0.00    +0.031 C 
BRANCH   6   8
ATOM      8  C   ALA A   8      22.156 -17.503  31.259  0.00  0.00    +0.241 C 
ATOM      9  O   ALA A   8      22.371 -17.908  32.402  0.00  0.00    -0.273 OA
ATOM     10  N   LEU A   9      22.973 -17.752  30.239  0.00  0.00    -0.297 N 
ATOM     11  H   LEU A   9      22.728 -17.358  29.308  0.00  0.00    +0.150 HD
BRANCH  10  12
ATOM     12  CA  LEU A   9      24.186 -18.541  30.350  0.00  0.00    +0.149 C 
BRANCH  12  13
ATOM     13  C   LEU A   9      25.370 -17.577  30.385  0.00  0.00    +0.244 C 
ATOM     14  N   PRO A  10      25.892 -17.268  31.593  0.00  0.00    -0.272 N 
ATOM     15  CD  PRO A  10      25.710 -17.886  32.921  0.00  0.00    +0.094 C 
ATOM     16  CG  PRO A  10      26.761 -17.176  33.754  0.00  0.00    +0.024 C 
ATOM     17  CB  PRO A  10      26.966 -15.869  33.138  0.00  0.00    +0.031 C 
ATOM     18  CA  PRO A  10      26.768 -16.100  31.650  0.00  0.00    +0.152 C 
ATOM     19  O   LEU A   9      25.784 -17.083  29.338  0.00  0.00    -0.273 OA
BRANCH  18  20
ATOM     20  C   PRO A  10      28.100 -16.216  30.929  0.00  0.00    +0.241 C 
ATOM     21  N   HIS A  11      28.630 -17.430  30.811  0.00  0.00    -0.297 N 
ATOM     22  H   HIS A  11      28.140 -18.249  31.223  0.00  0.00    +0.150 HD
ATOM     23  O   PRO A  10      28.600 -15.210  30.437  0.00  0.00    -0.273 OA
BRANCH  21  24
ATOM     24  CA  HIS A  11      29.889 -17.620  30.110  0.00  0.00    +0.155 C 
BRANCH  24  25
ATOM     25  C   HIS A  11      29.819 -17.272  28.627  0.00  0.00    +0.241 C 
ATOM     26  N   ALA A  12      28.611 -17.263  28.049  0.00  0.00    -0.297 N 
ATOM     27  H   ALA A  12      27.775 -17.419  28.648  0.00  0.00    +0.150 HD
ATOM     28  O   HIS A  11      30.848 -17.001  28.018  0.00  0.00    -0.273 OA
BRANCH  26  29
ATOM     29  CA  ALA A  12      28.411 -17.045  26.622  0.00  0.00    +0.149 C 
ATOM     30  CB  ALA A  12      27.477 -18.115  26.074  0.00  0.00    +0.031 C 
BRANCH  29  31
ATOM     31  C   ALA A  12      27.855 -15.656  26.314  0.00  0.00    +0.241 C 
ATOM     32  N   ILE A  13      27.676 -14.838  27.338  0.00  0.00    -0.298 N 
ATOM     33  H   ILE A  13      27.861 -15.163  28.308  0.00  0.00    +0.150 HD
ATOM     34  O   ALA A  12      27.631 -15.323  25.163  0.00  0.00    -0.273 OA
BRANCH  32  35
ATOM     35  CA  ILE A  13      27.214 -13.470  27.091  0.00  0.00    +0.137 C 
BRANCH  35  36
ATOM     36  CB  ILE A  13      26.740 -12.831  28.413  0.00  0.00    +0.026 C 
ATOM     37  CG2 ILE A  13      26.556 -11.303  28.304  0.00  0.00    +0.002 C 
BRANCH  36  38
ATOM     38  CG1 ILE A  13      25.469 -13.517  28.900  0.00  0.00    +0.002 C 
ATOM     39  CD1 ILE A  13      25.035 -13.115  30.222  0.00  0.00    +0.000 C 
ENDBRANCH  36  38
ENDBRANCH  35  36
BRANCH  35  40
ATOM     40  C   ILE A  13      28.306 -12.665  26.407  0.00  0.00    +0.227 C 
ATOM     41  O   ILE A  13      29.483 -12.720  26.797  0.00  0.00    -0.286 OA
ENDBRANCH  35  40
ENDBRANCH  32  35
ENDBRANCH  29  31
ENDBRANCH  26  29
ENDBRANCH  24  25
BRANCH  24  42
ATOM     42  CB  HIS A  11      30.369 -19.059  30.261  0.00  0.00    +0.076 C 
BRANCH  42  43
ATOM     43  CG  HIS A  11      29.522 -20.057  29.535  0.00  0.00    +0.082 A 
ATOM     44  ND1 HIS A  11      28.272 -20.436  29.976  0.00  0.00    -0.227 NA
ATOM     45  CE1 HIS A  11      27.763 -21.323  29.133  0.00  0.00    +0.199 A 
ATOM     46  NE2 HIS A  11      28.627 -21.515  28.157  0.00  0.00    -0.221 NA
ATOM     47  CD2 HIS A  11      29.733 -20.730  28.376  0.00  0.00    +0.115 A 
ENDBRANCH  42  43
ENDBRANCH  24  42
ENDBRANCH  21  24
ENDBRANCH  18  20
ENDBRANCH  12  13
BRANCH  12  48
ATOM     48  CB  LEU A   9      24.321 -19.522  29.182  0.00  0.00    +0.029 C 
BRANCH  48  49
ATOM     49  CG  LEU A   9      23.155 -20.516  29.089  0.00  0.00    +0.002 C 
ATOM     50  CD2 LEU A   9      23.209 -21.579  30.172  0.00  0.00    +0.000 C 
ATOM     51  CD1 LEU A   9      23.070 -21.157  27.679  0.00  0.00    +0.000 C 
ENDBRANCH  48  49
ENDBRANCH  12  48
ENDBRANCH  10  12
ENDBRANCH   6   8
ENDBRANCH   3   6
ENDBRANCH   1   2
BRANCH   1  54
ATOM     52  C   GLY A   6      15.629 -18.477  32.198  0.00  0.00    +0.243 C 
ATOM     53  O   GLY A   6      15.398 -17.367  32.688  0.00  0.00    -0.273 OA
ATOM     54  N   TYR A   7      16.870 -18.957  32.063  0.00  0.00    -0.297 N 
ATOM     55  H   TYR A   7      17.031 -19.833  31.526  0.00  0.00    +0.150 HD
BRANCH  52  56
ATOM     56  CA  GLY A   6      14.484 -19.353  31.713  0.00  0.00    +0.176 C 
BRANCH  56  59
ATOM     57  C   GLU A   5      14.868 -21.748  31.384  0.00  0.00    +0.241 C 
ATOM     58  O   GLU A   5      14.773 -22.009  32.599  0.00  0.00    -0.273 OA
ATOM     59  N   GLY A   6      14.876 -20.500  30.909  0.00  0.00    -0.295 N 
ATOM     60  H   GLY A   6      15.174 -20.342  29.925  0.00  0.00    +0.150 HD
BRANCH  57  61
ATOM     61  CA  GLU A   5      15.041 -22.822  30.330  0.00  0.00    +0.149 C 
BRANCH  61  64
ATOM     62  C   TYR A   4      17.241 -22.030  29.660  0.00  0.00    +0.241 C 
ATOM     63  O   TYR A   4      17.621 -21.872  30.812  0.00  0.00    -0.273 OA
ATOM     64  N   GLU A   5      16.030 -22.454  29.326  0.00  0.00    -0.297 N 
ATOM     65  H   GLU A   5      15.779 -22.526  28.319  0.00  0.00    +0.150 HD
BRANCH  62  66
ATOM     66  CA  TYR A   4      18.165 -21.785  28.493  0.00  0.00    +0.153 C 
BRANCH  66  68
ATOM     67  C   ILE A   3      18.559 -19.590  27.469  0.00  0.00    +0.241 C 
ATOM     68  N   TYR A   4      18.618 -20.388  28.529  0.00  0.00    -0.297 N 
ATOM     69  H   TYR A   4      19.000 -20.009  29.419  0.00  0.00    +0.150 HD
ATOM     70  O   ILE A   3      18.092 -19.937  26.384  0.00  0.00    -0.273 OA
BRANCH  67  71
ATOM     71  CA  ILE A   3      19.128 -18.181  27.658  0.00  0.00    +0.149 C 
BRANCH  71  74
ATOM     72  C   PRO A   2      21.182 -17.302  26.603  0.00  0.00    +0.241 C 
ATOM     73  O   PRO A   2      21.748 -17.090  27.667  0.00  0.00    -0.273 OA
ATOM     74  N   ILE A   3      20.004 -17.935  26.495  0.00  0.00    -0.297 N 
ATOM     75  H   ILE A   3      19.697 -18.265  25.558  0.00  0.00    +0.150 HD
BRANCH  72  81
ATOM     76  C   VAL A   1      21.763 -14.480  25.439  0.00  0.00    +0.241 C 
ATOM     77  N   PRO A   2      22.482 -15.604  25.435  0.00  0.00    -0.272 N 
ATOM     78  CD  PRO A   2      23.939 -15.728  25.563  0.00  0.00    +0.094 C 
ATOM     79  CG  PRO A   2      24.195 -17.178  25.334  0.00  0.00    +0.024 C 
ATOM     80  CB  PRO A   2      22.974 -17.812  24.900  0.00  0.00    +0.031 C 
ATOM     81  CA  PRO A   2      21.830 -16.904  25.300  0.00  0.00    +0.152 C 
ATOM     82  O   VAL A   1      20.547 -14.470  25.172  0.00  0.00    -0.273 OA
BRANCH  76  83
ATOM     83  CA  VAL A   1      22.479 -13.189  25.784  0.00  0.00    +0.145 C 
BRANCH  83  84
ATOM     84  CB  VAL A   1      21.623 -12.348  26.781  0.00  0.00    +0.025 C 
ATOM     85  CG2 VAL A   1      21.437 -13.071  28.068  0.00  0.00    +0.002 C 
ATOM     86  CG1 VAL A   1      22.310 -10.969  27.012  0.00  0.00    +0.002 C 
ENDBRANCH  83  84
BRANCH  83  87
ATOM     87  N   VAL A   1      22.760 -12.446  24.565  0.00  0.00    -0.238 NA
ATOM     88  H   VAL A   1      21.986 -12.292  23.887  0.00  0.00    +0.142 HD
ENDBRANCH  83  87
ENDBRANCH  76  83
ENDBRANCH  72  81
ENDBRANCH  71  74
BRANCH  71  89
ATOM     89  CB  ILE A   3      17.982 -17.173  27.684  0.00  0.00    +0.027 C 
ATOM     90  CG2 ILE A   3      17.004 -17.467  28.776  0.00  0.00    +0.002 C 
BRANCH  89  91
ATOM     91  CG1 ILE A   3      18.539 -15.752  27.850  0.00  0.00    +0.002 C 
ATOM     92  CD1 ILE A   3      17.611 -14.630  27.387  0.00  0.00    +0.000 C 
ENDBRANCH  89  91
ENDBRANCH  71  89
ENDBRANCH  67  71
ENDBRANCH  66  68
BRANCH  66  93
ATOM     93  CB  TYR A   4      19.370 -22.728  28.537  0.00  0.00    +0.055 C 
BRANCH  93  94
ATOM     94  CG  TYR A   4      19.043 -24.203  28.550  0.00  0.00    -0.020 A 
ATOM     95  CD2 TYR A   4      19.119 -24.926  29.729  0.00  0.00    -0.001 A 
ATOM     96  CE2 TYR A   4      18.833 -26.278  29.767  0.00  0.00    +0.036 A 
ATOM     97  CZ  TYR A   4      18.460 -26.922  28.625  0.00  0.00    +0.134 A 
ATOM     98  CE1 TYR A   4      18.363 -26.249  27.435  0.00  0.00    +0.036 A 
ATOM     99  CD1 TYR A   4      18.671 -24.875  27.391  0.00  0.00    -0.001 A 
BRANCH  97 100
ATOM    100  OH  TYR A   4      18.180 -28.276  28.668  0.00  0.00    -0.506 OA
ATOM    101  HH  TYR A   4      17.927 -28.588  27.763  0.00  0.00    +0.292 HD
ENDBRANCH  97 100
ENDBRANCH  93  94
ENDBRANCH  66  93
ENDBRANCH  62  66
ENDBRANCH  61  64
BRANCH  61 102
ATOM    102  CB  GLU A   5      15.420 -24.152  30.979  0.00  0.00    +0.041 C 
BRANCH 102 103
ATOM    103  CG  GLU A   5      15.492 -25.291  30.009  0.00  0.00    +0.116 C 
BRANCH 103 104
ATOM    104  CD  GLU A   5      14.226 -26.058  29.988  0.00  0.00    +0.365 C 
ATOM    105  OE2 GLU A   5      14.177 -27.053  30.735  0.00  0.00    -0.246 OA
ATOM    106  OE1 GLU A   5      13.282 -25.646  29.277  0.00  0.00    -0.246 OA
ENDBRANCH 103 104
ENDBRANCH 102 103
ENDBRANCH  61 102
ENDBRANCH  57  61
ENDBRANCH  56  59
ENDBRANCH  52  56
ENDBRANCH   1  54
BRANCH   1 107
ATOM    107  CB  TYR A   7      18.439 -18.985  33.955  0.00  0.00    +0.055 C 
BRANCH 107 108
ATOM    108  CG  TYR A   7      17.296 -19.049  34.937  0.00  0.00    -0.020 A 
ATOM    109  CD2 TYR A   7      17.005 -17.977  35.749  0.00  0.00    -0.001 A 
ATOM    110  CE2 TYR A   7      15.953 -18.013  36.624  0.00  0.00    +0.036 A 
ATOM    111  CZ  TYR A   7      15.144 -19.086  36.642  0.00  0.00    +0.134 A 
ATOM    112  CE1 TYR A   7      15.373 -20.181  35.832  0.00  0.00    +0.036 A 
ATOM    113  CD1 TYR A   7      16.444 -20.141  34.957  0.00  0.00    -0.001 A 
BRANCH 111 114
ATOM    114  OH  TYR A   7      14.100 -19.082  37.532  0.00  0.00    -0.506 OA
ATOM    115  HH  TYR A   7      13.588 -19.924  37.442  0.00  0.00    +0.292 HD
ENDBRANCH 111 114
ENDBRANCH 107 108
ENDBRANCH   1 107
TORSDOF 42
REMARK  Name = ../refined-set-2016/2fxu/2fxu_pocket.pdb
REMARK  205 active torsions:
REMARK  status: ('A' for Active; 'I' for Inactive)
REMARK    1  A    between atoms: _1  and  _3
REMARK    2  A    between atoms: _3  and  _4
REMARK    3  A    between atoms: _3  and  _6
REMARK    4  A    between atoms: _6  and  _7
REMARK    5  A    between atoms: _10  and  _12
REMARK    6  A    between atoms: _12  and  _13
REMARK    7  A    between atoms: _12  and  _15
REMARK    8  A    between atoms: _15  and  _16
REMARK    9  A    between atoms: _19  and  _21
REMARK   10  A    between atoms: _21  and  _22
REMARK   11  A    between atoms: _21  and  _24
REMARK   12  A    between atoms: _24  and  _25
REMARK   13  A    between atoms: _28  and  _30
REMARK   14  A    between atoms: _30  and  _31
REMARK   15  A    between atoms: _30  and  _33
REMARK   16  A    between atoms: _33  and  _34
REMARK   17  A    between atoms: _34  and  _35
REMARK   18  A    between atoms: _39  and  _40
REMARK   19  A    between atoms: _45  and  _47
REMARK   20  A    between atoms: _47  and  _48
REMARK   21  A    between atoms: _47  and  _50
REMARK   22  A    between atoms: _50  and  _51
REMARK   23  A    between atoms: _54  and  _56
REMARK   24  A    between atoms: _56  and  _57
REMARK   25  A    between atoms: _56  and  _59
REMARK   26  A    between atoms: _59  and  _60
REMARK   27  A    between atoms: _65  and  _67
REMARK   28  A    between atoms: _67  and  _68
REMARK   29  A    between atoms: _67  and  _70
REMARK   30  A    between atoms: _70  and  _71
REMARK   31  A    between atoms: _71  and  _72
REMARK   32  A    between atoms: _72  and  _73
REMARK   33  A    between atoms: _73  and  _74
REMARK   34  A    between atoms: _78  and  _80
REMARK   35  A    between atoms: _80  and  _81
REMARK   36  A    between atoms: _80  and  _83
REMARK   37  A    between atoms: _83  and  _84
REMARK   38  A    between atoms: _84  and  _85
REMARK   39  A    between atoms: _85  and  _86
REMARK   40  A    between atoms: _95  and  _97
REMARK   41  A    between atoms: _97  and  _98
REMARK   42  A    between atoms: _97  and  _100
REMARK   43  A    between atoms: _100  and  _101
REMARK   44  A    between atoms: _106  and  _107
REMARK   45  A    between atoms: _109  and  _111
REMARK   46  A    between atoms: _111  and  _112
REMARK   47  A    between atoms: _111  and  _114
REMARK   48  A    between atoms: _117  and  _119
REMARK   49  A    between atoms: _119  and  _120
REMARK   50  A    between atoms: _123  and  _125
REMARK   51  A    between atoms: _125  and  _126
REMARK   52  A    between atoms: _125  and  _128
REMARK   53  A    between atoms: _128  and  _129
REMARK   54  A    between atoms: _132  and  _134
REMARK   55  A    between atoms: _134  and  _135
REMARK   56  A    between atoms: _134  and  _137
REMARK   57  A    between atoms: _137  and  _138
REMARK   58  A    between atoms: _138  and  _139
REMARK   59  A    between atoms: _144  and  _146
REMARK   60  A    between atoms: _146  and  _147
REMARK   61  A    between atoms: _150  and  _152
REMARK   62  A    between atoms: _152  and  _153
REMARK   63  A    between atoms: _152  and  _155
REMARK   64  A    between atoms: _158  and  _160
REMARK   65  A    between atoms: _160  and  _161
REMARK   66  A    between atoms: _160  and  _163
REMARK   67  A    between atoms: _163  and  _164
REMARK   68  A    between atoms: _167  and  _169
REMARK   69  A    between atoms: _169  and  _170
REMARK   70  A    between atoms: _169  and  _172
REMARK   71  A    between atoms: _172  and  _173
REMARK   72  A    between atoms: _175  and  _177
REMARK   73  A    between atoms: _177  and  _178
REMARK   74  A    between atoms: _177  and  _180
REMARK   75  A    between atoms: _180  and  _181
REMARK   76  A    between atoms: _184  and  _186
REMARK   77  A    between atoms: _186  and  _187
REMARK   78  A    between atoms: _186  and  _189
REMARK   79  A    between atoms: _189  and  _190
REMARK   80  A    between atoms: _195  and  _196
REMARK   81  A    between atoms: _198  and  _200
REMARK   82  A    between atoms: _200  and  _201
REMARK   83  A    between atoms: _204  and  _206
REMARK   84  A    between atoms: _206  and  _207
REMARK   85  A    between atoms: _206  and  _209
REMARK   86  A    between atoms: _209  and  _210
REMARK   87  A    between atoms: _212  and  _214
REMARK   88  A    between atoms: _214  and  _215
REMARK   89  A    between atoms: _217  and  _219
REMARK   90  A    between atoms: _219  and  _220
REMARK   91  A    between atoms: _219  and  _222
REMARK   92  A    between atoms: _222  and  _223
REMARK   93  A    between atoms: _223  and  _224
REMARK   94  A    between atoms: _224  and  _225
REMARK   95  A    between atoms: _234  and  _236
REMARK   96  A    between atoms: _236  and  _237
REMARK   97  A    between atoms: _236  and  _239
REMARK   98  A    between atoms: _239  and  _240
REMARK   99  A    between atoms: _243  and  _245
REMARK  100  A    between atoms: _245  and  _246
REMARK  101  A    between atoms: _245  and  _248
REMARK  102  A    between atoms: _248  and  _249
REMARK  103  A    between atoms: _252  and  _254
REMARK  104  A    between atoms: _254  and  _255
REMARK  105  A    between atoms: _254  and  _257
REMARK  106  A    between atoms: _261  and  _262
REMARK  107  A    between atoms: _267  and  _269
REMARK  108  A    between atoms: _269  and  _270
REMARK  109  A    between atoms: _269  and  _272
REMARK  110  A    between atoms: _272  and  _273
REMARK  111  A    between atoms: _276  and  _278
REMARK  112  A    between atoms: _278  and  _279
REMARK  113  A    between atoms: _278  and  _281
REMARK  114  A    between atoms: _281  and  _282
REMARK  115  A    between atoms: _287  and  _288
REMARK  116  A    between atoms: _290  and  _292
REMARK  117  A    between atoms: _292  and  _293
REMARK  118  A    between atoms: _292  and  _295
REMARK  119  A    between atoms: _295  and  _296
REMARK  120  A    between atoms: _296  and  _297
REMARK  121  A    between atoms: _300  and  _302
REMARK  122  A    between atoms: _302  and  _303
REMARK  123  A    between atoms: _305  and  _307
REMARK  124  A    between atoms: _307  and  _308
REMARK  125  A    between atoms: _307  and  _310
REMARK  126  A    between atoms: _310  and  _311
REMARK  127  A    between atoms: _316  and  _317
REMARK  128  A    between atoms: _319  and  _321
REMARK  129  A    between atoms: _321  and  _322
REMARK  130  A    between atoms: _325  and  _327
REMARK  131  A    between atoms: _327  and  _328
REMARK  132  A    between atoms: _327  and  _330
REMARK  133  A    between atoms: _330  and  _331
REMARK  134  A    between atoms: _335  and  _336
REMARK  135  A    between atoms: _341  and  _343
REMARK  136  A    between atoms: _343  and  _344
REMARK  137  A    between atoms: _343  and  _346
REMARK  138  A    between atoms: _346  and  _347
REMARK  139  A    between atoms: _352  and  _354
REMARK  140  A    between atoms: _354  and  _355
REMARK  141  A    between atoms: _358  and  _360
REMARK  142  A    between atoms: _360  and  _361
REMARK  143  A    between atoms: _360  and  _363
REMARK  144  A    between atoms: _363  and  _364
REMARK  145  A    between atoms: _367  and  _369
REMARK  146  A    between atoms: _369  and  _370
REMARK  147  A    between atoms: _369  and  _372
REMARK  148  A    between atoms: _372  and  _373
REMARK  149  A    between atoms: _376  and  _378
REMARK  150  A    between atoms: _378  and  _379
REMARK  151  A    between atoms: _381  and  _383
REMARK  152  A    between atoms: _383  and  _384
REMARK  153  A    between atoms: _386  and  _388
REMARK  154  A    between atoms: _388  and  _389
REMARK  155  A    between atoms: _388  and  _391
REMARK  156  A    between atoms: _391  and  _392
REMARK  157  A    between atoms: _394  and  _396
REMARK  158  A    between atoms: _396  and  _397
REMARK  159  A    between atoms: _396  and  _399
REMARK  160  A    between atoms: _399  and  _400
REMARK  161  A    between atoms: _403  and  _405
REMARK  162  A    between atoms: _405  and  _406
REMARK  163  A    between atoms: _405  and  _408
REMARK  164  A    between atoms: _408  and  _409
REMARK  165  A    between atoms: _412  and  _414
REMARK  166  A    between atoms: _414  and  _415
REMARK  167  A    between atoms: _418  and  _420
REMARK  168  A    between atoms: _420  and  _421
REMARK  169  A    between atoms: _420  and  _423
REMARK  170  A    between atoms: _423  and  _424
REMARK  171  A    between atoms: _426  and  _428
REMARK  172  A    between atoms: _428  and  _429
REMARK  173  A    between atoms: _428  and  _431
REMARK  174  A    between atoms: _431  and  _432
REMARK  175  A    between atoms: _435  and  _437
REMARK  176  A    between atoms: _437  and  _438
REMARK  177  A    between atoms: _437  and  _440
REMARK  178  A    between atoms: _440  and  _441
REMARK  179  A    between atoms: _443  and  _445
REMARK  180  A    between atoms: _445  and  _446
REMARK  181  A    between atoms: _445  and  _448
REMARK  182  A    between atoms: _448  and  _449
REMARK  183  A    between atoms: _452  and  _454
REMARK  184  A    between atoms: _454  and  _455
REMARK  185  A    between atoms: _454  and  _457
REMARK  186  A    between atoms: _457  and  _458
REMARK  187  A    between atoms: _464  and  _466
REMARK  188  A    between atoms: _466  and  _467
REMARK  189  A    between atoms: _466  and  _469
REMARK  190  A    between atoms: _469  and  _470
REMARK  191  A    between atoms: _470  and  _471
REMARK  192  A    between atoms: _476  and  _478
REMARK  193  A    between atoms: _478  and  _479
REMARK  194  A    between atoms: _478  and  _481
REMARK  195  A    between atoms: _481  and  _482
REMARK  196  A    between atoms: _482  and  _483
REMARK  197  A    between atoms: _488  and  _490
REMARK  198  A    between atoms: _490  and  _491
REMARK  199  A    between atoms: _490  and  _493
REMARK  200  A    between atoms: _493  and  _494
REMARK  201  A    between atoms: _494  and  _495
REMARK  202  A    between atoms: _497  and  _499
REMARK  203  A    between atoms: _499  and  _500
REMARK  204  A    between atoms: _499  and  _502
REMARK  205  A    between atoms: _502  and  _503
REMARK                            x       y       z     vdW  Elec       q    Type
REMARK                         _______ _______ _______ _____ _____    ______ ____
ROOT
ATOM      1  CA  LEU A   9       2.267 -13.717  37.553  0.00  0.00    +0.149 C 
ENDROOT
BRANCH   1   2
ATOM      2  C   LEU A   9       1.973 -14.095  38.980  0.00  0.00    +0.241 C 
ATOM      3  O   LEU A   9       2.675 -13.654  39.878  0.00  0.00    -0.273 OA
ATOM      4  N   SER A  10       0.965 -14.951  39.196  0.00  0.00    -0.295 N 
ATOM      5  H   SER A  10       0.399 -15.289  38.392  0.00  0.00    +0.150 HD
BRANCH   4   6
ATOM      6  CA  SER A  10       0.648 -15.418  40.547  0.00  0.00    +0.178 C 
BRANCH   6   7
ATOM      7  C   SER A  10       1.841 -16.118  41.182  0.00  0.00    +0.243 C 
ATOM      8  O   SER A  10       2.134 -15.926  42.354  0.00  0.00    -0.273 OA
ATOM      9  N   THR A  11       2.535 -16.921  40.387  0.00  0.00    -0.295 N 
ATOM     10  H   THR A  11       2.232 -17.039  39.399  0.00  0.00    +0.150 HD
BRANCH   9  11
ATOM     11  CA  THR A  11       3.710 -17.642  40.859  0.00  0.00    +0.176 C 
BRANCH  11  12
ATOM     12  C   THR A  11       4.955 -16.777  41.127  0.00  0.00    +0.243 C 
ATOM     13  O   THR A  11       5.937 -17.266  41.713  0.00  0.00    -0.273 OA
ATOM     14  N   PHE A  12       4.916 -15.512  40.701  0.00  0.00    -0.297 N 
ATOM     15  H   PHE A  12       4.108 -15.201  40.126  0.00  0.00    +0.150 HD
BRANCH  14  16
ATOM     16  CA  PHE A  12       5.968 -14.552  41.015  0.00  0.00    +0.153 C 
BRANCH  16  17
ATOM     17  C   PHE A  12       5.814 -13.857  42.352  0.00  0.00    +0.241 C 
ATOM     18  N   GLN A  13       4.616 -13.881  42.934  0.00  0.00    -0.297 N 
ATOM     19  H   GLN A  13       3.875 -14.519  42.579  0.00  0.00    +0.150 HD
ATOM     20  O   PHE A  12       6.783 -13.305  42.871  0.00  0.00    -0.273 OA
BRANCH  18  21
ATOM     21  CA  GLN A  13       4.349 -13.009  44.071  0.00  0.00    +0.149 C 
BRANCH  21  22
ATOM     22  C   GLN A  13       5.217 -13.389  45.281  0.00  0.00    +0.241 C 
ATOM     23  O   GLN A  13       5.644 -12.515  46.035  0.00  0.00    -0.273 OA
ATOM     24  N   GLN A  14       5.541 -14.677  45.405  0.00  0.00    -0.297 N 
ATOM     25  H   GLN A  14       5.113 -15.370  44.758  0.00  0.00    +0.150 HD
BRANCH  24  26
ATOM     26  CA  GLN A  14       6.479 -15.143  46.423  0.00  0.00    +0.149 C 
BRANCH  26  27
ATOM     27  C   GLN A  14       7.899 -14.646  46.219  0.00  0.00    +0.241 C 
ATOM     28  O   GLN A  14       8.713 -14.694  47.133  0.00  0.00    -0.273 OA
ATOM     29  N   MET A  15       8.223 -14.206  45.005  0.00  0.00    -0.298 N 
ATOM     30  H   MET A  15       7.482 -14.100  44.283  0.00  0.00    +0.150 HD
BRANCH  29  31
ATOM     31  CA  MET A  15       9.607 -13.870  44.674  0.00  0.00    +0.138 C 
BRANCH  31  32
ATOM     32  C   MET A  15      10.018 -12.440  44.992  0.00  0.00    +0.227 C 
ATOM     33  O   MET A  15      11.209 -12.144  45.018  0.00  0.00    -0.286 OA
ENDBRANCH  31  32
BRANCH  31  34
ATOM     34  CB  MET A  15       9.878 -14.187  43.210  0.00  0.00    +0.039 C 
BRANCH  34  35
ATOM     35  CG  MET A  15       9.751 -15.654  42.922  0.00  0.00    +0.060 C 
BRANCH  35  36
ATOM     36  SD  MET A  15      10.324 -16.070  41.286  0.00  0.00    -0.139 S 
ATOM     37  CE  MET A  15      12.095 -16.037  41.484  0.00  0.00    +0.069 C 
ENDBRANCH  35  36
ENDBRANCH  34  35
ENDBRANCH  31  34
ENDBRANCH  29  31
ENDBRANCH  26  27
BRANCH  26  38
ATOM     38  CB  GLN A  14       6.519 -16.678  46.460  0.00  0.00    +0.039 C 
BRANCH  38  39
ATOM     39  CG  GLN A  14       6.985 -17.313  45.144  0.00  0.00    +0.087 C 
BRANCH  39  40
ATOM     40  CD  GLN A  14       7.916 -18.492  45.353  0.00  0.00    +0.219 C 
ATOM     41  NE2 GLN A  14       7.385 -19.574  45.931  0.00  0.00    -0.329 N 
ATOM     42 HE21 GLN A  14       6.383 -19.576  46.208  0.00  0.00    +0.145 HD
ATOM     43 HE22 GLN A  14       7.974 -20.414  46.103  0.00  0.00    +0.145 HD
ATOM     44  OE1 GLN A  14       9.103 -18.433  45.002  0.00  0.00    -0.275 OA
ENDBRANCH  39  40
ENDBRANCH  38  39
ENDBRANCH  26  38
ENDBRANCH  24  26
ENDBRANCH  21  22
BRANCH  21  45
ATOM     45  CB  GLN A  13       2.853 -12.976  44.395  0.00  0.00    +0.039 C 
BRANCH  45  46
ATOM     46  CG  GLN A  13       1.999 -12.428  43.244  0.00  0.00    +0.087 C 
BRANCH  46  47
ATOM     47  CD  GLN A  13       2.561 -11.130  42.639  0.00  0.00    +0.219 C 
ATOM     48  OE1 GLN A  13       2.714 -10.128  43.345  0.00  0.00    -0.275 OA
ATOM     49  NE2 GLN A  13       2.852 -11.147  41.330  0.00  0.00    -0.329 N 
ATOM     50 HE21 GLN A  13       3.223 -10.292  40.869  0.00  0.00    +0.145 HD
ATOM     51 HE22 GLN A  13       2.706 -12.015  40.776  0.00  0.00    +0.145 HD
ENDBRANCH  46  47
ENDBRANCH  45  46
ENDBRANCH  21  45
ENDBRANCH  18  21
ENDBRANCH  16  17
BRANCH  16  52
ATOM     52  CB  PHE A  12       6.026 -13.459  39.937  0.00  0.00    +0.055 C 
BRANCH  52  53
ATOM     53  CG  PHE A  12       7.149 -12.481  40.126  0.00  0.00    -0.020 A 
ATOM     54  CD2 PHE A  12       6.896 -11.177  40.519  0.00  0.00    -0.004 A 
ATOM     55  CE2 PHE A  12       7.922 -10.288  40.685  0.00  0.00    -0.000 A 
ATOM     56  CZ  PHE A  12       9.222 -10.677  40.467  0.00  0.00    -0.000 A 
ATOM     57  CE1 PHE A  12       9.495 -11.960  40.068  0.00  0.00    -0.000 A 
ATOM     58  CD1 PHE A  12       8.456 -12.871  39.912  0.00  0.00    -0.004 A 
ENDBRANCH  52  53
ENDBRANCH  16  52
ENDBRANCH  14  16
ENDBRANCH  11  12
BRANCH  11  59
ATOM     59  CB  THR A  11       4.096 -18.740  39.882  0.00  0.00    +0.137 C 
ATOM     60  CG2 THR A  11       4.223 -18.175  38.469  0.00  0.00    +0.034 C 
BRANCH  59  61
ATOM     61  OG1 THR A  11       5.338 -19.331  40.301  0.00  0.00    -0.382 OA
ATOM     62  HG1 THR A  11       6.044 -18.637  40.317  0.00  0.00    +0.210 HD
ENDBRANCH  59  61
ENDBRANCH  11  59
ENDBRANCH   9  11
ENDBRANCH   6   7
BRANCH   6  63
ATOM     63  CB  SER A  10      -0.556 -16.372  40.543  0.00  0.00    +0.166 C 
BRANCH  63  64
ATOM     64  OG  SER A  10      -0.212 -17.635  39.987  0.00  0.00    -0.380 OA
ATOM     65  H   SER A  10      -1.006 -18.226  39.998  0.00  0.00    +0.211 HD
ENDBRANCH  63  64
ENDBRANCH   6  63
ENDBRANCH   4   6
ENDBRANCH   1   2
BRANCH   1  68
ATOM     66  C   SER A   8       1.561 -11.397  37.697  0.00  0.00    +0.243 C 
ATOM     67  O   SER A   8       0.458 -11.750  38.121  0.00  0.00    -0.273 OA
ATOM     68  N   LEU A   9       2.526 -12.271  37.441  0.00  0.00    -0.297 N 
ATOM     69  H   LEU A   9       3.469 -11.934  37.160  0.00  0.00    +0.150 HD
BRANCH  66  70
ATOM     70  CA  SER A   8       1.829  -9.919  37.397  0.00  0.00    +0.178 C 
BRANCH  70  73
ATOM     71  C   ALA A   7       4.007  -9.200  38.285  0.00  0.00    +0.241 C 
ATOM     72  O   ALA A   7       3.596  -9.128  39.453  0.00  0.00    -0.273 OA
ATOM     73  N   SER A   8       3.246  -9.558  37.253  0.00  0.00    -0.295 N 
ATOM     74  H   SER A   8       3.672  -9.583  36.305  0.00  0.00    +0.150 HD
BRANCH  71  75
ATOM     75  CA  ALA A   7       5.460  -8.902  37.959  0.00  0.00    +0.149 C 
ATOM     76  CB  ALA A   7       5.695  -7.398  37.967  0.00  0.00    +0.031 C 
BRANCH  75  79
ATOM     77  C   LEU A   6       5.977 -10.800  36.459  0.00  0.00    +0.241 C 
ATOM     78  O   LEU A   6       5.576 -11.633  37.279  0.00  0.00    -0.273 OA
ATOM     79  N   ALA A   7       5.920  -9.487  36.689  0.00  0.00    -0.297 N 
ATOM     80  H   ALA A   7       6.217  -8.842  35.929  0.00  0.00    +0.150 HD
BRANCH  77  81
ATOM     81  CA  LEU A   6       6.556 -11.264  35.113  0.00  0.00    +0.149 C 
BRANCH  81  84
ATOM     82  C   ILE A   5       4.683 -10.575  33.704  0.00  0.00    +0.241 C 
ATOM     83  O   ILE A   5       3.861 -11.170  34.442  0.00  0.00    -0.273 OA
ATOM     84  N   LEU A   6       5.991 -10.555  33.955  0.00  0.00    -0.297 N 
ATOM     85  H   LEU A   6       6.624 -10.028  33.320  0.00  0.00    +0.150 HD
BRANCH  82  86
ATOM     86  CA  ILE A   5       4.199  -9.790  32.490  0.00  0.00    +0.149 C 
BRANCH  86  89
ATOM     87  C   SER A   4       4.490  -7.573  33.532  0.00  0.00    +0.243 C 
ATOM     88  O   SER A   4       3.751  -7.858  34.497  0.00  0.00    -0.273 OA
ATOM     89  N   ILE A   5       4.751  -8.418  32.534  0.00  0.00    -0.297 N 
ATOM     90  H   ILE A   5       5.366  -8.101  31.757  0.00  0.00    +0.150 HD
BRANCH  87  91
ATOM     91  CA  SER A   4       5.173  -6.208  33.457  0.00  0.00    +0.178 C 
BRANCH  91  94
ATOM     92  C   GLY A   3       7.464  -6.964  33.927  0.00  0.00    +0.243 C 
ATOM     93  O   GLY A   3       7.154  -7.413  35.037  0.00  0.00    -0.273 OA
ATOM     94  N   SER A   4       6.590  -6.361  33.120  0.00  0.00    -0.295 N 
ATOM     95  H   SER A   4       6.929  -5.983  32.212  0.00  0.00    +0.150 HD
BRANCH  92  96
ATOM     96  CA  GLY A   3       8.896  -7.040  33.446  0.00  0.00    +0.176 C 
BRANCH  96  99
ATOM     97  C   GLY A   2       8.530  -8.503  31.547  0.00  0.00    +0.243 C 
ATOM     98  O   GLY A   2       8.070  -9.390  32.266  0.00  0.00    -0.273 OA
ATOM     99  N   GLY A   3       9.013  -7.370  32.044  0.00  0.00    -0.295 N 
ATOM    100  H   GLY A   3       9.489  -6.701  31.406  0.00  0.00    +0.150 HD
BRANCH  97 101
ATOM    101  CA  GLY A   2       8.596  -8.665  30.032  0.00  0.00    +0.176 C 
BRANCH 101 104
ATOM    102  C   ILE A   1       7.023  -6.871  29.511  0.00  0.00    +0.238 C 
ATOM    103  O   ILE A   1       6.167  -7.395  30.236  0.00  0.00    -0.274 OA
ATOM    104  N   GLY A   2       8.241  -7.410  29.348  0.00  0.00    -0.296 N 
ATOM    105  H   GLY A   2       8.938  -6.939  28.736  0.00  0.00    +0.150 HD
BRANCH 102 106
ATOM    106  CA  ILE A   1       6.744  -5.553  28.800  0.00  0.00    +0.145 C 
BRANCH 106 107
ATOM    107  N   ILE A   1       7.938  -4.704  28.939  0.00  0.00    -0.238 NA
ATOM    108  H   ILE A   1       8.468  -4.438  28.084  0.00  0.00    +0.142 HD
ENDBRANCH 106 107
BRANCH 106 109
ATOM    109  CB  ILE A   1       6.400  -5.762  27.325  0.00  0.00    +0.025 C 
ATOM    110  CG2 ILE A   1       5.388  -6.869  27.176  0.00  0.00    +0.002 C 
BRANCH 109 111
ATOM    111  CG1 ILE A   1       5.898  -4.444  26.709  0.00  0.00    +0.002 C 
ATOM    112  CD1 ILE A   1       5.901  -4.453  25.218  0.00  0.00    +0.000 C 
ENDBRANCH 109 111
ENDBRANCH 106 109
ENDBRANCH 102 106
ENDBRANCH 101 104
ENDBRANCH  97 101
ENDBRANCH  96  99
ENDBRANCH  92  96
ENDBRANCH  91  94
BRANCH  91 113
ATOM    113  CB  SER A   4       4.520  -5.301  32.422  0.00  0.00    +0.166 C 
BRANCH 113 114
ATOM    114  OG  SER A   4       3.099  -5.239  32.595  0.00  0.00    -0.380 OA
ATOM    115  H   SER A   4       2.710  -4.643  31.907  0.00  0.00    +0.211 HD
ENDBRANCH 113 114
ENDBRANCH  91 113
ENDBRANCH  87  91
ENDBRANCH  86  89
BRANCH  86 116
ATOM    116  CB  ILE A   5       4.610 -10.519  31.205  0.00  0.00    +0.027 C 
ATOM    117  CG2 ILE A   5       4.182 -11.976  31.252  0.00  0.00    +0.002 C 
BRANCH 116 118
ATOM    118  CG1 ILE A   5       3.982  -9.826  29.990  0.00  0.00    +0.002 C 
ATOM    119  CD1 ILE A   5       4.563 -10.218  28.716  0.00  0.00    +0.000 C 
ENDBRANCH 116 118
ENDBRANCH  86 116
ENDBRANCH  82  86
ENDBRANCH  81  84
BRANCH  81 120
ATOM    120  CB  LEU A   6       8.081 -11.130  35.139  0.00  0.00    +0.029 C 
BRANCH 120 121
ATOM    121  CG  LEU A   6       8.851 -11.893  36.229  0.00  0.00    +0.002 C 
ATOM    122  CD2 LEU A   6      10.375 -11.623  36.285  0.00  0.00    +0.000 C 
ATOM    123  CD1 LEU A   6       8.632 -13.386  36.107  0.00  0.00    +0.000 C 
ENDBRANCH 120 121
ENDBRANCH  81 120
ENDBRANCH  77  81
ENDBRANCH  75  79
ENDBRANCH  71  75
ENDBRANCH  70  73
BRANCH  70 124
ATOM    124  CB  SER A   8       1.088  -9.576  36.100  0.00  0.00    +0.166 C 
BRANCH 124 125
ATOM    125  OG  SER A   8       1.447  -8.274  35.670  0.00  0.00    -0.380 OA
ATOM    126  H   SER A   8       2.423  -8.238  35.509  0.00  0.00    +0.211 HD
ENDBRANCH 124 125
ENDBRANCH  70 124
ENDBRANCH  66  70
ENDBRANCH   1  68
BRANCH   1 127
ATOM    127  CB  LEU A   9       3.484 -14.529  37.122  0.00  0.00    +0.029 C 
BRANCH 127 128
ATOM    128  CG  LEU A   9       3.766 -14.774  35.652  0.00  0.00    +0.002 C 
ATOM    129  CD2 LEU A   9       5.028 -15.612  35.564  0.00  0.00    +0.000 C 
ATOM    130  CD1 LEU A   9       2.602 -15.472  34.950  0.00  0.00    +0.000 C 
ENDBRANCH 127 128
ENDBRANCH   1 127
TORSDOF 57
REMARK  Name = ../refined-set-2016/2fxu/2fxu_pocket.pdb
REMARK  205 active torsions:
REMARK  status: ('A' for Active; 'I' for Inactive)
REMARK    1  A    between atoms: _1  and  _3
REMARK    2  A    between atoms: _3  and  _4
REMARK    3  A    between atoms: _3  and  _6
REMARK    4  A    between atoms: _6  and  _7
REMARK    5  A    between atoms: _10  and  _12
REMARK    6  A    between atoms: _12  and  _13
REMARK    7  A    between atoms: _12  and  _15
REMARK    8  A    between atoms: _15  and  _16
REMARK    9  A    between atoms: _19  and  _21
REMARK   10  A    between atoms: _21  and  _22
REMARK   11  A    between atoms: _21  and  _24
REMARK   12  A    between atoms: _24  and  _25
REMARK   13  A    between atoms: _28  and  _30
REMARK   14  A    between atoms: _30  and  _31
REMARK   15  A    between atoms: _30  and  _33
REMARK   16  A    between atoms: _33  and  _34
REMARK   17  A    between atoms: _34  and  _35
REMARK   18  A    between atoms: _39  and  _40
REMARK   19  A    between atoms: _45  and  _47
REMARK   20  A    between atoms: _47  and  _48
REMARK   21  A    between atoms: _47  and  _50
REMARK   22  A    between atoms: _50  and  _51
REMARK   23  A    between atoms: _54  and  _56
REMARK   24  A    between atoms: _56  and  _57
REMARK   25  A    between atoms: _56  and  _59
REMARK   26  A    between atoms: _59  and  _60
REMARK   27  A    between atoms: _65  and  _67
REMARK   28  A    between atoms: _67  and  _68
REMARK   29  A    between atoms: _67  and  _70
REMARK   30  A    between atoms: _70  and  _71
REMARK   31  A    between atoms: _71  and  _72
REMARK   32  A    between atoms: _72  and  _73
REMARK   33  A    between atoms: _73  and  _74
REMARK   34  A    between atoms: _78  and  _80
REMARK   35  A    between atoms: _80  and  _81
REMARK   36  A    between atoms: _80  and  _83
REMARK   37  A    between atoms: _83  and  _84
REMARK   38  A    between atoms: _84  and  _85
REMARK   39  A    between atoms: _85  and  _86
REMARK   40  A    between atoms: _95  and  _97
REMARK   41  A    between atoms: _97  and  _98
REMARK   42  A    between atoms: _97  and  _100
REMARK   43  A    between atoms: _100  and  _101
REMARK   44  A    between atoms: _106  and  _107
REMARK   45  A    between atoms: _109  and  _111
REMARK   46  A    between atoms: _111  and  _112
REMARK   47  A    between atoms: _111  and  _114
REMARK   48  A    between atoms: _117  and  _119
REMARK   49  A    between atoms: _119  and  _120
REMARK   50  A    between atoms: _123  and  _125
REMARK   51  A    between atoms: _125  and  _126
REMARK   52  A    between atoms: _125  and  _128
REMARK   53  A    between atoms: _128  and  _129
REMARK   54  A    between atoms: _132  and  _134
REMARK   55  A    between atoms: _134  and  _135
REMARK   56  A    between atoms: _134  and  _137
REMARK   57  A    between atoms: _137  and  _138
REMARK   58  A    between atoms: _138  and  _139
REMARK   59  A    between atoms: _144  and  _146
REMARK   60  A    between atoms: _146  and  _147
REMARK   61  A    between atoms: _150  and  _152
REMARK   62  A    between atoms: _152  and  _153
REMARK   63  A    between atoms: _152  and  _155
REMARK   64  A    between atoms: _158  and  _160
REMARK   65  A    between atoms: _160  and  _161
REMARK   66  A    between atoms: _160  and  _163
REMARK   67  A    between atoms: _163  and  _164
REMARK   68  A    between atoms: _167  and  _169
REMARK   69  A    between atoms: _169  and  _170
REMARK   70  A    between atoms: _169  and  _172
REMARK   71  A    between atoms: _172  and  _173
REMARK   72  A    between atoms: _175  and  _177
REMARK   73  A    between atoms: _177  and  _178
REMARK   74  A    between atoms: _177  and  _180
REMARK   75  A    between atoms: _180  and  _181
REMARK   76  A    between atoms: _184  and  _186
REMARK   77  A    between atoms: _186  and  _187
REMARK   78  A    between atoms: _186  and  _189
REMARK   79  A    between atoms: _189  and  _190
REMARK   80  A    between atoms: _195  and  _196
REMARK   81  A    between atoms: _198  and  _200
REMARK   82  A    between atoms: _200  and  _201
REMARK   83  A    between atoms: _204  and  _206
REMARK   84  A    between atoms: _206  and  _207
REMARK   85  A    between atoms: _206  and  _209
REMARK   86  A    between atoms: _209  and  _210
REMARK   87  A    between atoms: _212  and  _214
REMARK   88  A    between atoms: _214  and  _215
REMARK   89  A    between atoms: _217  and  _219
REMARK   90  A    between atoms: _219  and  _220
REMARK   91  A    between atoms: _219  and  _222
REMARK   92  A    between atoms: _222  and  _223
REMARK   93  A    between atoms: _223  and  _224
REMARK   94  A    between atoms: _224  and  _225
REMARK   95  A    between atoms: _234  and  _236
REMARK   96  A    between atoms: _236  and  _237
REMARK   97  A    between atoms: _236  and  _239
REMARK   98  A    between atoms: _239  and  _240
REMARK   99  A    between atoms: _243  and  _245
REMARK  100  A    between atoms: _245  and  _246
REMARK  101  A    between atoms: _245  and  _248
REMARK  102  A    between atoms: _248  and  _249
REMARK  103  A    between atoms: _252  and  _254
REMARK  104  A    between atoms: _254  and  _255
REMARK  105  A    between atoms: _254  and  _257
REMARK  106  A    between atoms: _261  and  _262
REMARK  107  A    between atoms: _267  and  _269
REMARK  108  A    between atoms: _269  and  _270
REMARK  109  A    between atoms: _269  and  _272
REMARK  110  A    between atoms: _272  and  _273
REMARK  111  A    between atoms: _276  and  _278
REMARK  112  A    between atoms: _278  and  _279
REMARK  113  A    between atoms: _278  and  _281
REMARK  114  A    between atoms: _281  and  _282
REMARK  115  A    between atoms: _287  and  _288
REMARK  116  A    between atoms: _290  and  _292
REMARK  117  A    between atoms: _292  and  _293
REMARK  118  A    between atoms: _292  and  _295
REMARK  119  A    between atoms: _295  and  _296
REMARK  120  A    between atoms: _296  and  _297
REMARK  121  A    between atoms: _300  and  _302
REMARK  122  A    between atoms: _302  and  _303
REMARK  123  A    between atoms: _305  and  _307
REMARK  124  A    between atoms: _307  and  _308
REMARK  125  A    between atoms: _307  and  _310
REMARK  126  A    between atoms: _310  and  _311
REMARK  127  A    between atoms: _316  and  _317
REMARK  128  A    between atoms: _319  and  _321
REMARK  129  A    between atoms: _321  and  _322
REMARK  130  A    between atoms: _325  and  _327
REMARK  131  A    between atoms: _327  and  _328
REMARK  132  A    between atoms: _327  and  _330
REMARK  133  A    between atoms: _330  and  _331
REMARK  134  A    between atoms: _335  and  _336
REMARK  135  A    between atoms: _341  and  _343
REMARK  136  A    between atoms: _343  and  _344
REMARK  137  A    between atoms: _343  and  _346
REMARK  138  A    between atoms: _346  and  _347
REMARK  139  A    between atoms: _352  and  _354
REMARK  140  A    between atoms: _354  and  _355
REMARK  141  A    between atoms: _358  and  _360
REMARK  142  A    between atoms: _360  and  _361
REMARK  143  A    between atoms: _360  and  _363
REMARK  144  A    between atoms: _363  and  _364
REMARK  145  A    between atoms: _367  and  _369
REMARK  146  A    between atoms: _369  and  _370
REMARK  147  A    between atoms: _369  and  _372
REMARK  148  A    between atoms: _372  and  _373
REMARK  149  A    between atoms: _376  and  _378
REMARK  150  A    between atoms: _378  and  _379
REMARK  151  A    between atoms: _381  and  _383
REMARK  152  A    between atoms: _383  and  _384
REMARK  153  A    between atoms: _386  and  _388
REMARK  154  A    between atoms: _388  and  _389
REMARK  155  A    between atoms: _388  and  _391
REMARK  156  A    between atoms: _391  and  _392
REMARK  157  A    between atoms: _394  and  _396
REMARK  158  A    between atoms: _396  and  _397
REMARK  159  A    between atoms: _396  and  _399
REMARK  160  A    between atoms: _399  and  _400
REMARK  161  A    between atoms: _403  and  _405
REMARK  162  A    between atoms: _405  and  _406
REMARK  163  A    between atoms: _405  and  _408
REMARK  164  A    between atoms: _408  and  _409
REMARK  165  A    between atoms: _412  and  _414
REMARK  166  A    between atoms: _414  and  _415
REMARK  167  A    between atoms: _418  and  _420
REMARK  168  A    between atoms: _420  and  _421
REMARK  169  A    between atoms: _420  and  _423
REMARK  170  A    between atoms: _423  and  _424
REMARK  171  A    between atoms: _426  and  _428
REMARK  172  A    between atoms: _428  and  _429
REMARK  173  A    between atoms: _428  and  _431
REMARK  174  A    between atoms: _431  and  _432
REMARK  175  A    between atoms: _435  and  _437
REMARK  176  A    between atoms: _437  and  _438
REMARK  177  A    between atoms: _437  and  _440
REMARK  178  A    between atoms: _440  and  _441
REMARK  179  A    between atoms: _443  and  _445
REMARK  180  A    between atoms: _445  and  _446
REMARK  181  A    between atoms: _445  and  _448
REMARK  182  A    between atoms: _448  and  _449
REMARK  183  A    between atoms: _452  and  _454
REMARK  184  A    between atoms: _454  and  _455
REMARK  185  A    between atoms: _454  and  _457
REMARK  186  A    between atoms: _457  and  _458
REMARK  187  A    between atoms: _464  and  _466
REMARK  188  A    between atoms: _466  and  _467
REMARK  189  A    between atoms: _466  and  _469
REMARK  190  A    between atoms: _469  and  _470
REMARK  191  A    between atoms: _470  and  _471
REMARK  192  A    between atoms: _476  and  _478
REMARK  193  A    between atoms: _478  and  _479
REMARK  194  A    between atoms: _478  and  _481
REMARK  195  A    between atoms: _481  and  _482
REMARK  196  A    between atoms: _482  and  _483
REMARK  197  A    between atoms: _488  and  _490
REMARK  198  A    between atoms: _490  and  _491
REMARK  199  A    between atoms: _490  and  _493
REMARK  200  A    between atoms: _493  and  _494
REMARK  201  A    between atoms: _494  and  _495
REMARK  202  A    between atoms: _497  and  _499
REMARK  203  A    between atoms: _499  and  _500
REMARK  204  A    between atoms: _499  and  _502
REMARK  205  A    between atoms: _502  and  _503
REMARK                            x       y       z     vdW  Elec       q    Type
REMARK                         _______ _______ _______ _____ _____    ______ ____
ROOT
ATOM      1  CB  HIS A   1      22.464 -12.570  45.445  0.00  0.00    +0.072 C 
ENDROOT
BRANCH   1   2
ATOM      2  CG  HIS A   1      23.262 -11.311  45.475  0.00  0.00    +0.082 A 
ATOM      3  CD2 HIS A   1      24.108 -10.805  46.403  0.00  0.00    +0.115 A 
ATOM      4  NE2 HIS A   1      24.557  -9.599  45.925  0.00  0.00    -0.221 NA
ATOM      5  CE1 HIS A   1      24.000  -9.370  44.749  0.00  0.00    +0.199 A 
ATOM      6  ND1 HIS A   1      23.209 -10.386  44.458  0.00  0.00    -0.227 NA
ENDBRANCH   1   2
BRANCH   1   7
ATOM      7  CA  HIS A   1      21.024 -12.360  44.980  0.00  0.00    +0.139 C 
BRANCH   7   8
ATOM      8  N   HIS A   1      20.394 -11.279  45.746  0.00  0.00    -0.239 NA
ATOM      9  H   HIS A   1      20.823 -10.985  46.647  0.00  0.00    +0.142 HD
ENDBRANCH   7   8
BRANCH   7  10
ATOM     10  C   HIS A   1      20.252 -13.663  45.126  0.00  0.00    +0.224 C 
ATOM     11  O   HIS A   1      19.534 -13.856  46.109  0.00  0.00    -0.287 OA
ENDBRANCH   7  10
ENDBRANCH   1   7
TORSDOF 4
REMARK  Name = ../refined-set-2016/2fxu/2fxu_pocket.pdb
REMARK  205 active torsions:
REMARK  status: ('A' for Active; 'I' for Inactive)
REMARK    1  A    between atoms: _1  and  _3
REMARK    2  A    between atoms: _3  and  _4
REMARK    3  A    between atoms: _3  and  _6
REMARK    4  A    between atoms: _6  and  _7
REMARK    5  A    between atoms: _10  and  _12
REMARK    6  A    between atoms: _12  and  _13
REMARK    7  A    between atoms: _12  and  _15
REMARK    8  A    between atoms: _15  and  _16
REMARK    9  A    between atoms: _19  and  _21
REMARK   10  A    between atoms: _21  and  _22
REMARK   11  A    between atoms: _21  and  _24
REMARK   12  A    between atoms: _24  and  _25
REMARK   13  A    between atoms: _28  and  _30
REMARK   14  A    between atoms: _30  and  _31
REMARK   15  A    between atoms: _30  and  _33
REMARK   16  A    between atoms: _33  and  _34
REMARK   17  A    between atoms: _34  and  _35
REMARK   18  A    between atoms: _39  and  _40
REMARK   19  A    between atoms: _45  and  _47
REMARK   20  A    between atoms: _47  and  _48
REMARK   21  A    between atoms: _47  and  _50
REMARK   22  A    between atoms: _50  and  _51
REMARK   23  A    between atoms: _54  and  _56
REMARK   24  A    between atoms: _56  and  _57
REMARK   25  A    between atoms: _56  and  _59
REMARK   26  A    between atoms: _59  and  _60
REMARK   27  A    between atoms: _65  and  _67
REMARK   28  A    between atoms: _67  and  _68
REMARK   29  A    between atoms: _67  and  _70
REMARK   30  A    between atoms: _70  and  _71
REMARK   31  A    between atoms: _71  and  _72
REMARK   32  A    between atoms: _72  and  _73
REMARK   33  A    between atoms: _73  and  _74
REMARK   34  A    between atoms: _78  and  _80
REMARK   35  A    between atoms: _80  and  _81
REMARK   36  A    between atoms: _80  and  _83
REMARK   37  A    between atoms: _83  and  _84
REMARK   38  A    between atoms: _84  and  _85
REMARK   39  A    between atoms: _85  and  _86
REMARK   40  A    between atoms: _95  and  _97
REMARK   41  A    between atoms: _97  and  _98
REMARK   42  A    between atoms: _97  and  _100
REMARK   43  A    between atoms: _100  and  _101
REMARK   44  A    between atoms: _106  and  _107
REMARK   45  A    between atoms: _109  and  _111
REMARK   46  A    between atoms: _111  and  _112
REMARK   47  A    between atoms: _111  and  _114
REMARK   48  A    between atoms: _117  and  _119
REMARK   49  A    between atoms: _119  and  _120
REMARK   50  A    between atoms: _123  and  _125
REMARK   51  A    between atoms: _125  and  _126
REMARK   52  A    between atoms: _125  and  _128
REMARK   53  A    between atoms: _128  and  _129
REMARK   54  A    between atoms: _132  and  _134
REMARK   55  A    between atoms: _134  and  _135
REMARK   56  A    between atoms: _134  and  _137
REMARK   57  A    between atoms: _137  and  _138
REMARK   58  A    between atoms: _138  and  _139
REMARK   59  A    between atoms: _144  and  _146
REMARK   60  A    between atoms: _146  and  _147
REMARK   61  A    between atoms: _150  and  _152
REMARK   62  A    between atoms: _152  and  _153
REMARK   63  A    between atoms: _152  and  _155
REMARK   64  A    between atoms: _158  and  _160
REMARK   65  A    between atoms: _160  and  _161
REMARK   66  A    between atoms: _160  and  _163
REMARK   67  A    between atoms: _163  and  _164
REMARK   68  A    between atoms: _167  and  _169
REMARK   69  A    between atoms: _169  and  _170
REMARK   70  A    between atoms: _169  and  _172
REMARK   71  A    between atoms: _172  and  _173
REMARK   72  A    between atoms: _175  and  _177
REMARK   73  A    between atoms: _177  and  _178
REMARK   74  A    between atoms: _177  and  _180
REMARK   75  A    between atoms: _180  and  _181
REMARK   76  A    between atoms: _184  and  _186
REMARK   77  A    between atoms: _186  and  _187
REMARK   78  A    between atoms: _186  and  _189
REMARK   79  A    between atoms: _189  and  _190
REMARK   80  A    between atoms: _195  and  _196
REMARK   81  A    between atoms: _198  and  _200
REMARK   82  A    between atoms: _200  and  _201
REMARK   83  A    between atoms: _204  and  _206
REMARK   84  A    between atoms: _206  and  _207
REMARK   85  A    between atoms: _206  and  _209
REMARK   86  A    between atoms: _209  and  _210
REMARK   87  A    between atoms: _212  and  _214
REMARK   88  A    between atoms: _214  and  _215
REMARK   89  A    between atoms: _217  and  _219
REMARK   90  A    between atoms: _219  and  _220
REMARK   91  A    between atoms: _219  and  _222
REMARK   92  A    between atoms: _222  and  _223
REMARK   93  A    between atoms: _223  and  _224
REMARK   94  A    between atoms: _224  and  _225
REMARK   95  A    between atoms: _234  and  _236
REMARK   96  A    between atoms: _236  and  _237
REMARK   97  A    between atoms: _236  and  _239
REMARK   98  A    between atoms: _239  and  _240
REMARK   99  A    between atoms: _243  and  _245
REMARK  100  A    between atoms: _245  and  _246
REMARK  101  A    between atoms: _245  and  _248
REMARK  102  A    between atoms: _248  and  _249
REMARK  103  A    between atoms: _252  and  _254
REMARK  104  A    between atoms: _254  and  _255
REMARK  105  A    between atoms: _254  and  _257
REMARK  106  A    between atoms: _261  and  _262
REMARK  107  A    between atoms: _267  and  _269
REMARK  108  A    between atoms: _269  and  _270
REMARK  109  A    between atoms: _269  and  _272
REMARK  110  A    between atoms: _272  and  _273
REMARK  111  A    between atoms: _276  and  _278
REMARK  112  A    between atoms: _278  and  _279
REMARK  113  A    between atoms: _278  and  _281
REMARK  114  A    between atoms: _281  and  _282
REMARK  115  A    between atoms: _287  and  _288
REMARK  116  A    between atoms: _290  and  _292
REMARK  117  A    between atoms: _292  and  _293
REMARK  118  A    between atoms: _292  and  _295
REMARK  119  A    between atoms: _295  and  _296
REMARK  120  A    between atoms: _296  and  _297
REMARK  121  A    between atoms: _300  and  _302
REMARK  122  A    between atoms: _302  and  _303
REMARK  123  A    between atoms: _305  and  _307
REMARK  124  A    between atoms: _307  and  _308
REMARK  125  A    between atoms: _307  and  _310
REMARK  126  A    between atoms: _310  and  _311
REMARK  127  A    between atoms: _316  and  _317
REMARK  128  A    between atoms: _319  and  _321
REMARK  129  A    between atoms: _321  and  _322
REMARK  130  A    between atoms: _325  and  _327
REMARK  131  A    between atoms: _327  and  _328
REMARK  132  A    between atoms: _327  and  _330
REMARK  133  A    between atoms: _330  and  _331
REMARK  134  A    between atoms: _335  and  _336
REMARK  135  A    between atoms: _341  and  _343
REMARK  136  A    between atoms: _343  and  _344
REMARK  137  A    between atoms: _343  and  _346
REMARK  138  A    between atoms: _346  and  _347
REMARK  139  A    between atoms: _352  and  _354
REMARK  140  A    between atoms: _354  and  _355
REMARK  141  A    between atoms: _358  and  _360
REMARK  142  A    between atoms: _360  and  _361
REMARK  143  A    between atoms: _360  and  _363
REMARK  144  A    between atoms: _363  and  _364
REMARK  145  A    between atoms: _367  and  _369
REMARK  146  A    between atoms: _369  and  _370
REMARK  147  A    between atoms: _369  and  _372
REMARK  148  A    between atoms: _372  and  _373
REMARK  149  A    between atoms: _376  and  _378
REMARK  150  A    between atoms: _378  and  _379
REMARK  151  A    between atoms: _381  and  _383
REMARK  152  A    between atoms: _383  and  _384
REMARK  153  A    between atoms: _386  and  _388
REMARK  154  A    between atoms: _388  and  _389
REMARK  155  A    between atoms: _388  and  _391
REMARK  156  A    between atoms: _391  and  _392
REMARK  157  A    between atoms: _394  and  _396
REMARK  158  A    between atoms: _396  and  _397
REMARK  159  A    between atoms: _396  and  _399
REMARK  160  A    between atoms: _399  and  _400
REMARK  161  A    between atoms: _403  and  _405
REMARK  162  A    between atoms: _405  and  _406
REMARK  163  A    between atoms: _405  and  _408
REMARK  164  A    between atoms: _408  and  _409
REMARK  165  A    between atoms: _412  and  _414
REMARK  166  A    between atoms: _414  and  _415
REMARK  167  A    between atoms: _418  and  _420
REMARK  168  A    between atoms: _420  and  _421
REMARK  169  A    between atoms: _420  and  _423
REMARK  170  A    between atoms: _423  and  _424
REMARK  171  A    between atoms: _426  and  _428
REMARK  172  A    between atoms: _428  and  _429
REMARK  173  A    between atoms: _428  and  _431
REMARK  174  A    between atoms: _431  and  _432
REMARK  175  A    between atoms: _435  and  _437
REMARK  176  A    between atoms: _437  and  _438
REMARK  177  A    between atoms: _437  and  _440
REMARK  178  A    between atoms: _440  and  _441
REMARK  179  A    between atoms: _443  and  _445
REMARK  180  A    between atoms: _445  and  _446
REMARK  181  A    between atoms: _445  and  _448
REMARK  182  A    between atoms: _448  and  _449
REMARK  183  A    between atoms: _452  and  _454
REMARK  184  A    between atoms: _454  and  _455
REMARK  185  A    between atoms: _454  and  _457
REMARK  186  A    between atoms: _457  and  _458
REMARK  187  A    between atoms: _464  and  _466
REMARK  188  A    between atoms: _466  and  _467
REMARK  189  A    between atoms: _466  and  _469
REMARK  190  A    between atoms: _469  and  _470
REMARK  191  A    between atoms: _470  and  _471
REMARK  192  A    between atoms: _476  and  _478
REMARK  193  A    between atoms: _478  and  _479
REMARK  194  A    between atoms: _478  and  _481
REMARK  195  A    between atoms: _481  and  _482
REMARK  196  A    between atoms: _482  and  _483
REMARK  197  A    between atoms: _488  and  _490
REMARK  198  A    between atoms: _490  and  _491
REMARK  199  A    between atoms: _490  and  _493
REMARK  200  A    between atoms: _493  and  _494
REMARK  201  A    between atoms: _494  and  _495
REMARK  202  A    between atoms: _497  and  _499
REMARK  203  A    between atoms: _499  and  _500
REMARK  204  A    between atoms: _499  and  _502
REMARK  205  A    between atoms: _502  and  _503
REMARK                            x       y       z     vdW  Elec       q    Type
REMARK                         _______ _______ _______ _____ _____    ______ ____
ROOT
ATOM      1  O   HOH     1      10.835 -21.494  24.970  0.00  0.00    +0.000 OA
ENDROOT
TORSDOF 0
REMARK  Name = ../refined-set-2016/2fxu/2fxu_pocket.pdb
REMARK  205 active torsions:
REMARK  status: ('A' for Active; 'I' for Inactive)
REMARK    1  A    between atoms: _1  and  _3
REMARK    2  A    between atoms: _3  and  _4
REMARK    3  A    between atoms: _3  and  _6
REMARK    4  A    between atoms: _6  and  _7
REMARK    5  A    between atoms: _10  and  _12
REMARK    6  A    between atoms: _12  and  _13
REMARK    7  A    between atoms: _12  and  _15
REMARK    8  A    between atoms: _15  and  _16
REMARK    9  A    between atoms: _19  and  _21
REMARK   10  A    between atoms: _21  and  _22
REMARK   11  A    between atoms: _21  and  _24
REMARK   12  A    between atoms: _24  and  _25
REMARK   13  A    between atoms: _28  and  _30
REMARK   14  A    between atoms: _30  and  _31
REMARK   15  A    between atoms: _30  and  _33
REMARK   16  A    between atoms: _33  and  _34
REMARK   17  A    between atoms: _34  and  _35
REMARK   18  A    between atoms: _39  and  _40
REMARK   19  A    between atoms: _45  and  _47
REMARK   20  A    between atoms: _47  and  _48
REMARK   21  A    between atoms: _47  and  _50
REMARK   22  A    between atoms: _50  and  _51
REMARK   23  A    between atoms: _54  and  _56
REMARK   24  A    between atoms: _56  and  _57
REMARK   25  A    between atoms: _56  and  _59
REMARK   26  A    between atoms: _59  and  _60
REMARK   27  A    between atoms: _65  and  _67
REMARK   28  A    between atoms: _67  and  _68
REMARK   29  A    between atoms: _67  and  _70
REMARK   30  A    between atoms: _70  and  _71
REMARK   31  A    between atoms: _71  and  _72
REMARK   32  A    between atoms: _72  and  _73
REMARK   33  A    between atoms: _73  and  _74
REMARK   34  A    between atoms: _78  and  _80
REMARK   35  A    between atoms: _80  and  _81
REMARK   36  A    between atoms: _80  and  _83
REMARK   37  A    between atoms: _83  and  _84
REMARK   38  A    between atoms: _84  and  _85
REMARK   39  A    between atoms: _85  and  _86
REMARK   40  A    between atoms: _95  and  _97
REMARK   41  A    between atoms: _97  and  _98
REMARK   42  A    between atoms: _97  and  _100
REMARK   43  A    between atoms: _100  and  _101
REMARK   44  A    between atoms: _106  and  _107
REMARK   45  A    between atoms: _109  and  _111
REMARK   46  A    between atoms: _111  and  _112
REMARK   47  A    between atoms: _111  and  _114
REMARK   48  A    between atoms: _117  and  _119
REMARK   49  A    between atoms: _119  and  _120
REMARK   50  A    between atoms: _123  and  _125
REMARK   51  A    between atoms: _125  and  _126
REMARK   52  A    between atoms: _125  and  _128
REMARK   53  A    between atoms: _128  and  _129
REMARK   54  A    between atoms: _132  and  _134
REMARK   55  A    between atoms: _134  and  _135
REMARK   56  A    between atoms: _134  and  _137
REMARK   57  A    between atoms: _137  and  _138
REMARK   58  A    between atoms: _138  and  _139
REMARK   59  A    between atoms: _144  and  _146
REMARK   60  A    between atoms: _146  and  _147
REMARK   61  A    between atoms: _150  and  _152
REMARK   62  A    between atoms: _152  and  _153
REMARK   63  A    between atoms: _152  and  _155
REMARK   64  A    between atoms: _158  and  _160
REMARK   65  A    between atoms: _160  and  _161
REMARK   66  A    between atoms: _160  and  _163
REMARK   67  A    between atoms: _163  and  _164
REMARK   68  A    between atoms: _167  and  _169
REMARK   69  A    between atoms: _169  and  _170
REMARK   70  A    between atoms: _169  and  _172
REMARK   71  A    between atoms: _172  and  _173
REMARK   72  A    between atoms: _175  and  _177
REMARK   73  A    between atoms: _177  and  _178
REMARK   74  A    between atoms: _177  and  _180
REMARK   75  A    between atoms: _180  and  _181
REMARK   76  A    between atoms: _184  and  _186
REMARK   77  A    between atoms: _186  and  _187
REMARK   78  A    between atoms: _186  and  _189
REMARK   79  A    between atoms: _189  and  _190
REMARK   80  A    between atoms: _195  and  _196
REMARK   81  A    between atoms: _198  and  _200
REMARK   82  A    between atoms: _200  and  _201
REMARK   83  A    between atoms: _204  and  _206
REMARK   84  A    between atoms: _206  and  _207
REMARK   85  A    between atoms: _206  and  _209
REMARK   86  A    between atoms: _209  and  _210
REMARK   87  A    between atoms: _212  and  _214
REMARK   88  A    between atoms: _214  and  _215
REMARK   89  A    between atoms: _217  and  _219
REMARK   90  A    between atoms: _219  and  _220
REMARK   91  A    between atoms: _219  and  _222
REMARK   92  A    between atoms: _222  and  _223
REMARK   93  A    between atoms: _223  and  _224
REMARK   94  A    between atoms: _224  and  _225
REMARK   95  A    between atoms: _234  and  _236
REMARK   96  A    between atoms: _236  and  _237
REMARK   97  A    between atoms: _236  and  _239
REMARK   98  A    between atoms: _239  and  _240
REMARK   99  A    between atoms: _243  and  _245
REMARK  100  A    between atoms: _245  and  _246
REMARK  101  A    between atoms: _245  and  _248
REMARK  102  A    between atoms: _248  and  _249
REMARK  103  A    between atoms: _252  and  _254
REMARK  104  A    between atoms: _254  and  _255
REMARK  105  A    between atoms: _254  and  _257
REMARK  106  A    between atoms: _261  and  _262
REMARK  107  A    between atoms: _267  and  _269
REMARK  108  A    between atoms: _269  and  _270
REMARK  109  A    between atoms: _269  and  _272
REMARK  110  A    between atoms: _272  and  _273
REMARK  111  A    between atoms: _276  and  _278
REMARK  112  A    between atoms: _278  and  _279
REMARK  113  A    between atoms: _278  and  _281
REMARK  114  A    between atoms: _281  and  _282
REMARK  115  A    between atoms: _287  and  _288
REMARK  116  A    between atoms: _290  and  _292
REMARK  117  A    between atoms: _292  and  _293
REMARK  118  A    between atoms: _292  and  _295
REMARK  119  A    between atoms: _295  and  _296
REMARK  120  A    between atoms: _296  and  _297
REMARK  121  A    between atoms: _300  and  _302
REMARK  122  A    between atoms: _302  and  _303
REMARK  123  A    between atoms: _305  and  _307
REMARK  124  A    between atoms: _307  and  _308
REMARK  125  A    between atoms: _307  and  _310
REMARK  126  A    between atoms: _310  and  _311
REMARK  127  A    between atoms: _316  and  _317
REMARK  128  A    between atoms: _319  and  _321
REMARK  129  A    between atoms: _321  and  _322
REMARK  130  A    between atoms: _325  and  _327
REMARK  131  A    between atoms: _327  and  _328
REMARK  132  A    between atoms: _327  and  _330
REMARK  133  A    between atoms: _330  and  _331
REMARK  134  A    between atoms: _335  and  _336
REMARK  135  A    between atoms: _341  and  _343
REMARK  136  A    between atoms: _343  and  _344
REMARK  137  A    between atoms: _343  and  _346
REMARK  138  A    between atoms: _346  and  _347
REMARK  139  A    between atoms: _352  and  _354
REMARK  140  A    between atoms: _354  and  _355
REMARK  141  A    between atoms: _358  and  _360
REMARK  142  A    between atoms: _360  and  _361
REMARK  143  A    between atoms: _360  and  _363
REMARK  144  A    between atoms: _363  and  _364
REMARK  145  A    between atoms: _367  and  _369
REMARK  146  A    between atoms: _369  and  _370
REMARK  147  A    between atoms: _369  and  _372
REMARK  148  A    between atoms: _372  and  _373
REMARK  149  A    between atoms: _376  and  _378
REMARK  150  A    between atoms: _378  and  _379
REMARK  151  A    between atoms: _381  and  _383
REMARK  152  A    between atoms: _383  and  _384
REMARK  153  A    between atoms: _386  and  _388
REMARK  154  A    between atoms: _388  and  _389
REMARK  155  A    between atoms: _388  and  _391
REMARK  156  A    between atoms: _391  and  _392
REMARK  157  A    between atoms: _394  and  _396
REMARK  158  A    between atoms: _396  and  _397
REMARK  159  A    between atoms: _396  and  _399
REMARK  160  A    between atoms: _399  and  _400
REMARK  161  A    between atoms: _403  and  _405
REMARK  162  A    between atoms: _405  and  _406
REMARK  163  A    between atoms: _405  and  _408
REMARK  164  A    between atoms: _408  and  _409
REMARK  165  A    between atoms: _412  and  _414
REMARK  166  A    between atoms: _414  and  _415
REMARK  167  A    between atoms: _418  and  _420
REMARK  168  A    between atoms: _420  and  _421
REMARK  169  A    between atoms: _420  and  _423
REMARK  170  A    between atoms: _423  and  _424
REMARK  171  A    between atoms: _426  and  _428
REMARK  172  A    between atoms: _428  and  _429
REMARK  173  A    between atoms: _428  and  _431
REMARK  174  A    between atoms: _431  and  _432
REMARK  175  A    between atoms: _435  and  _437
REMARK  176  A    between atoms: _437  and  _438
REMARK  177  A    between atoms: _437  and  _440
REMARK  178  A    between atoms: _440  and  _441
REMARK  179  A    between atoms: _443  and  _445
REMARK  180  A    between atoms: _445  and  _446
REMARK  181  A    between atoms: _445  and  _448
REMARK  182  A    between atoms: _448  and  _449
REMARK  183  A    between atoms: _452  and  _454
REMARK  184  A    between atoms: _454  and  _455
REMARK  185  A    between atoms: _454  and  _457
REMARK  186  A    between atoms: _457  and  _458
REMARK  187  A    between atoms: _464  and  _466
REMARK  188  A    between atoms: _466  and  _467
REMARK  189  A    between atoms: _466  and  _469
REMARK  190  A    between atoms: _469  and  _470
REMARK  191  A    between atoms: _470  and  _471
REMARK  192  A    between atoms: _476  and  _478
REMARK  193  A    between atoms: _478  and  _479
REMARK  194  A    between atoms: _478  and  _481
REMARK  195  A    between atoms: _481  and  _482
REMARK  196  A    between atoms: _482  and  _483
REMARK  197  A    between atoms: _488  and  _490
REMARK  198  A    between atoms: _490  and  _491
REMARK  199  A    between atoms: _490  and  _493
REMARK  200  A    between atoms: _493  and  _494
REMARK  201  A    between atoms: _494  and  _495
REMARK  202  A    between atoms: _497  and  _499
REMARK  203  A    between atoms: _499  and  _500
REMARK  204  A    between atoms: _499  and  _502
REMARK  205  A    between atoms: _502  and  _503
REMARK                            x       y       z     vdW  Elec       q    Type
REMARK                         _______ _______ _______ _____ _____    ______ ____
ROOT
ATOM      1  O   HOH     1       5.100 -14.390  28.114  0.00  0.00    +0.000 OA
ENDROOT
TORSDOF 0
REMARK  Name = ../refined-set-2016/2fxu/2fxu_pocket.pdb
REMARK  205 active torsions:
REMARK  status: ('A' for Active; 'I' for Inactive)
REMARK    1  A    between atoms: _1  and  _3
REMARK    2  A    between atoms: _3  and  _4
REMARK    3  A    between atoms: _3  and  _6
REMARK    4  A    between atoms: _6  and  _7
REMARK    5  A    between atoms: _10  and  _12
REMARK    6  A    between atoms: _12  and  _13
REMARK    7  A    between atoms: _12  and  _15
REMARK    8  A    between atoms: _15  and  _16
REMARK    9  A    between atoms: _19  and  _21
REMARK   10  A    between atoms: _21  and  _22
REMARK   11  A    between atoms: _21  and  _24
REMARK   12  A    between atoms: _24  and  _25
REMARK   13  A    between atoms: _28  and  _30
REMARK   14  A    between atoms: _30  and  _31
REMARK   15  A    between atoms: _30  and  _33
REMARK   16  A    between atoms: _33  and  _34
REMARK   17  A    between atoms: _34  and  _35
REMARK   18  A    between atoms: _39  and  _40
REMARK   19  A    between atoms: _45  and  _47
REMARK   20  A    between atoms: _47  and  _48
REMARK   21  A    between atoms: _47  and  _50
REMARK   22  A    between atoms: _50  and  _51
REMARK   23  A    between atoms: _54  and  _56
REMARK   24  A    between atoms: _56  and  _57
REMARK   25  A    between atoms: _56  and  _59
REMARK   26  A    between atoms: _59  and  _60
REMARK   27  A    between atoms: _65  and  _67
REMARK   28  A    between atoms: _67  and  _68
REMARK   29  A    between atoms: _67  and  _70
REMARK   30  A    between atoms: _70  and  _71
REMARK   31  A    between atoms: _71  and  _72
REMARK   32  A    between atoms: _72  and  _73
REMARK   33  A    between atoms: _73  and  _74
REMARK   34  A    between atoms: _78  and  _80
REMARK   35  A    between atoms: _80  and  _81
REMARK   36  A    between atoms: _80  and  _83
REMARK   37  A    between atoms: _83  and  _84
REMARK   38  A    between atoms: _84  and  _85
REMARK   39  A    between atoms: _85  and  _86
REMARK   40  A    between atoms: _95  and  _97
REMARK   41  A    between atoms: _97  and  _98
REMARK   42  A    between atoms: _97  and  _100
REMARK   43  A    between atoms: _100  and  _101
REMARK   44  A    between atoms: _106  and  _107
REMARK   45  A    between atoms: _109  and  _111
REMARK   46  A    between atoms: _111  and  _112
REMARK   47  A    between atoms: _111  and  _114
REMARK   48  A    between atoms: _117  and  _119
REMARK   49  A    between atoms: _119  and  _120
REMARK   50  A    between atoms: _123  and  _125
REMARK   51  A    between atoms: _125  and  _126
REMARK   52  A    between atoms: _125  and  _128
REMARK   53  A    between atoms: _128  and  _129
REMARK   54  A    between atoms: _132  and  _134
REMARK   55  A    between atoms: _134  and  _135
REMARK   56  A    between atoms: _134  and  _137
REMARK   57  A    between atoms: _137  and  _138
REMARK   58  A    between atoms: _138  and  _139
REMARK   59  A    between atoms: _144  and  _146
REMARK   60  A    between atoms: _146  and  _147
REMARK   61  A    between atoms: _150  and  _152
REMARK   62  A    between atoms: _152  and  _153
REMARK   63  A    between atoms: _152  and  _155
REMARK   64  A    between atoms: _158  and  _160
REMARK   65  A    between atoms: _160  and  _161
REMARK   66  A    between atoms: _160  and  _163
REMARK   67  A    between atoms: _163  and  _164
REMARK   68  A    between atoms: _167  and  _169
REMARK   69  A    between atoms: _169  and  _170
REMARK   70  A    between atoms: _169  and  _172
REMARK   71  A    between atoms: _172  and  _173
REMARK   72  A    between atoms: _175  and  _177
REMARK   73  A    between atoms: _177  and  _178
REMARK   74  A    between atoms: _177  and  _180
REMARK   75  A    between atoms: _180  and  _181
REMARK   76  A    between atoms: _184  and  _186
REMARK   77  A    between atoms: _186  and  _187
REMARK   78  A    between atoms: _186  and  _189
REMARK   79  A    between atoms: _189  and  _190
REMARK   80  A    between atoms: _195  and  _196
REMARK   81  A    between atoms: _198  and  _200
REMARK   82  A    between atoms: _200  and  _201
REMARK   83  A    between atoms: _204  and  _206
REMARK   84  A    between atoms: _206  and  _207
REMARK   85  A    between atoms: _206  and  _209
REMARK   86  A    between atoms: _209  and  _210
REMARK   87  A    between atoms: _212  and  _214
REMARK   88  A    between atoms: _214  and  _215
REMARK   89  A    between atoms: _217  and  _219
REMARK   90  A    between atoms: _219  and  _220
REMARK   91  A    between atoms: _219  and  _222
REMARK   92  A    between atoms: _222  and  _223
REMARK   93  A    between atoms: _223  and  _224
REMARK   94  A    between atoms: _224  and  _225
REMARK   95  A    between atoms: _234  and  _236
REMARK   96  A    between atoms: _236  and  _237
REMARK   97  A    between atoms: _236  and  _239
REMARK   98  A    between atoms: _239  and  _240
REMARK   99  A    between atoms: _243  and  _245
REMARK  100  A    between atoms: _245  and  _246
REMARK  101  A    between atoms: _245  and  _248
REMARK  102  A    between atoms: _248  and  _249
REMARK  103  A    between atoms: _252  and  _254
REMARK  104  A    between atoms: _254  and  _255
REMARK  105  A    between atoms: _254  and  _257
REMARK  106  A    between atoms: _261  and  _262
REMARK  107  A    between atoms: _267  and  _269
REMARK  108  A    between atoms: _269  and  _270
REMARK  109  A    between atoms: _269  and  _272
REMARK  110  A    between atoms: _272  and  _273
REMARK  111  A    between atoms: _276  and  _278
REMARK  112  A    between atoms: _278  and  _279
REMARK  113  A    between atoms: _278  and  _281
REMARK  114  A    between atoms: _281  and  _282
REMARK  115  A    between atoms: _287  and  _288
REMARK  116  A    between atoms: _290  and  _292
REMARK  117  A    between atoms: _292  and  _293
REMARK  118  A    between atoms: _292  and  _295
REMARK  119  A    between atoms: _295  and  _296
REMARK  120  A    between atoms: _296  and  _297
REMARK  121  A    between atoms: _300  and  _302
REMARK  122  A    between atoms: _302  and  _303
REMARK  123  A    between atoms: _305  and  _307
REMARK  124  A    between atoms: _307  and  _308
REMARK  125  A    between atoms: _307  and  _310
REMARK  126  A    between atoms: _310  and  _311
REMARK  127  A    between atoms: _316  and  _317
REMARK  128  A    between atoms: _319  and  _321
REMARK  129  A    between atoms: _321  and  _322
REMARK  130  A    between atoms: _325  and  _327
REMARK  131  A    between atoms: _327  and  _328
REMARK  132  A    between atoms: _327  and  _330
REMARK  133  A    between atoms: _330  and  _331
REMARK  134  A    between atoms: _335  and  _336
REMARK  135  A    between atoms: _341  and  _343
REMARK  136  A    between atoms: _343  and  _344
REMARK  137  A    between atoms: _343  and  _346
REMARK  138  A    between atoms: _346  and  _347
REMARK  139  A    between atoms: _352  and  _354
REMARK  140  A    between atoms: _354  and  _355
REMARK  141  A    between atoms: _358  and  _360
REMARK  142  A    between atoms: _360  and  _361
REMARK  143  A    between atoms: _360  and  _363
REMARK  144  A    between atoms: _363  and  _364
REMARK  145  A    between atoms: _367  and  _369
REMARK  146  A    between atoms: _369  and  _370
REMARK  147  A    between atoms: _369  and  _372
REMARK  148  A    between atoms: _372  and  _373
REMARK  149  A    between atoms: _376  and  _378
REMARK  150  A    between atoms: _378  and  _379
REMARK  151  A    between atoms: _381  and  _383
REMARK  152  A    between atoms: _383  and  _384
REMARK  153  A    between atoms: _386  and  _388
REMARK  154  A    between atoms: _388  and  _389
REMARK  155  A    between atoms: _388  and  _391
REMARK  156  A    between atoms: _391  and  _392
REMARK  157  A    between atoms: _394  and  _396
REMARK  158  A    between atoms: _396  and  _397
REMARK  159  A    between atoms: _396  and  _399
REMARK  160  A    between atoms: _399  and  _400
REMARK  161  A    between atoms: _403  and  _405
REMARK  162  A    between atoms: _405  and  _406
REMARK  163  A    between atoms: _405  and  _408
REMARK  164  A    between atoms: _408  and  _409
REMARK  165  A    between atoms: _412  and  _414
REMARK  166  A    between atoms: _414  and  _415
REMARK  167  A    between atoms: _418  and  _420
REMARK  168  A    between atoms: _420  and  _421
REMARK  169  A    between atoms: _420  and  _423
REMARK  170  A    between atoms: _423  and  _424
REMARK  171  A    between atoms: _426  and  _428
REMARK  172  A    between atoms: _428  and  _429
REMARK  173  A    between atoms: _428  and  _431
REMARK  174  A    between atoms: _431  and  _432
REMARK  175  A    between atoms: _435  and  _437
REMARK  176  A    between atoms: _437  and  _438
REMARK  177  A    between atoms: _437  and  _440
REMARK  178  A    between atoms: _440  and  _441
REMARK  179  A    between atoms: _443  and  _445
REMARK  180  A    between atoms: _445  and  _446
REMARK  181  A    between atoms: _445  and  _448
REMARK  182  A    between atoms: _448  and  _449
REMARK  183  A    between atoms: _452  and  _454
REMARK  184  A    between atoms: _454  and  _455
REMARK  185  A    between atoms: _454  and  _457
REMARK  186  A    between atoms: _457  and  _458
REMARK  187  A    between atoms: _464  and  _466
REMARK  188  A    between atoms: _466  and  _467
REMARK  189  A    between atoms: _466  and  _469
REMARK  190  A    between atoms: _469  and  _470
REMARK  191  A    between atoms: _470  and  _471
REMARK  192  A    between atoms: _476  and  _478
REMARK  193  A    between atoms: _478  and  _479
REMARK  194  A    between atoms: _478  and  _481
REMARK  195  A    between atoms: _481  and  _482
REMARK  196  A    between atoms: _482  and  _483
REMARK  197  A    between atoms: _488  and  _490
REMARK  198  A    between atoms: _490  and  _491
REMARK  199  A    between atoms: _490  and  _493
REMARK  200  A    between atoms: _493  and  _494
REMARK  201  A    between atoms: _494  and  _495
REMARK  202  A    between atoms: _497  and  _499
REMARK  203  A    between atoms: _499  and  _500
REMARK  204  A    between atoms: _499  and  _502
REMARK  205  A    between atoms: _502  and  _503
REMARK                            x       y       z     vdW  Elec       q    Type
REMARK                         _______ _______ _______ _____ _____    ______ ____
ROOT
ATOM      1  O   HOH     1       1.322 -11.790  33.669  0.00  0.00    +0.000 OA
ENDROOT
TORSDOF 0
REMARK  Name = ../refined-set-2016/2fxu/2fxu_pocket.pdb
REMARK  205 active torsions:
REMARK  status: ('A' for Active; 'I' for Inactive)
REMARK    1  A    between atoms: _1  and  _3
REMARK    2  A    between atoms: _3  and  _4
REMARK    3  A    between atoms: _3  and  _6
REMARK    4  A    between atoms: _6  and  _7
REMARK    5  A    between atoms: _10  and  _12
REMARK    6  A    between atoms: _12  and  _13
REMARK    7  A    between atoms: _12  and  _15
REMARK    8  A    between atoms: _15  and  _16
REMARK    9  A    between atoms: _19  and  _21
REMARK   10  A    between atoms: _21  and  _22
REMARK   11  A    between atoms: _21  and  _24
REMARK   12  A    between atoms: _24  and  _25
REMARK   13  A    between atoms: _28  and  _30
REMARK   14  A    between atoms: _30  and  _31
REMARK   15  A    between atoms: _30  and  _33
REMARK   16  A    between atoms: _33  and  _34
REMARK   17  A    between atoms: _34  and  _35
REMARK   18  A    between atoms: _39  and  _40
REMARK   19  A    between atoms: _45  and  _47
REMARK   20  A    between atoms: _47  and  _48
REMARK   21  A    between atoms: _47  and  _50
REMARK   22  A    between atoms: _50  and  _51
REMARK   23  A    between atoms: _54  and  _56
REMARK   24  A    between atoms: _56  and  _57
REMARK   25  A    between atoms: _56  and  _59
REMARK   26  A    between atoms: _59  and  _60
REMARK   27  A    between atoms: _65  and  _67
REMARK   28  A    between atoms: _67  and  _68
REMARK   29  A    between atoms: _67  and  _70
REMARK   30  A    between atoms: _70  and  _71
REMARK   31  A    between atoms: _71  and  _72
REMARK   32  A    between atoms: _72  and  _73
REMARK   33  A    between atoms: _73  and  _74
REMARK   34  A    between atoms: _78  and  _80
REMARK   35  A    between atoms: _80  and  _81
REMARK   36  A    between atoms: _80  and  _83
REMARK   37  A    between atoms: _83  and  _84
REMARK   38  A    between atoms: _84  and  _85
REMARK   39  A    between atoms: _85  and  _86
REMARK   40  A    between atoms: _95  and  _97
REMARK   41  A    between atoms: _97  and  _98
REMARK   42  A    between atoms: _97  and  _100
REMARK   43  A    between atoms: _100  and  _101
REMARK   44  A    between atoms: _106  and  _107
REMARK   45  A    between atoms: _109  and  _111
REMARK   46  A    between atoms: _111  and  _112
REMARK   47  A    between atoms: _111  and  _114
REMARK   48  A    between atoms: _117  and  _119
REMARK   49  A    between atoms: _119  and  _120
REMARK   50  A    between atoms: _123  and  _125
REMARK   51  A    between atoms: _125  and  _126
REMARK   52  A    between atoms: _125  and  _128
REMARK   53  A    between atoms: _128  and  _129
REMARK   54  A    between atoms: _132  and  _134
REMARK   55  A    between atoms: _134  and  _135
REMARK   56  A    between atoms: _134  and  _137
REMARK   57  A    between atoms: _137  and  _138
REMARK   58  A    between atoms: _138  and  _139
REMARK   59  A    between atoms: _144  and  _146
REMARK   60  A    between atoms: _146  and  _147
REMARK   61  A    between atoms: _150  and  _152
REMARK   62  A    between atoms: _152  and  _153
REMARK   63  A    between atoms: _152  and  _155
REMARK   64  A    between atoms: _158  and  _160
REMARK   65  A    between atoms: _160  and  _161
REMARK   66  A    between atoms: _160  and  _163
REMARK   67  A    between atoms: _163  and  _164
REMARK   68  A    between atoms: _167  and  _169
REMARK   69  A    between atoms: _169  and  _170
REMARK   70  A    between atoms: _169  and  _172
REMARK   71  A    between atoms: _172  and  _173
REMARK   72  A    between atoms: _175  and  _177
REMARK   73  A    between atoms: _177  and  _178
REMARK   74  A    between atoms: _177  and  _180
REMARK   75  A    between atoms: _180  and  _181
REMARK   76  A    between atoms: _184  and  _186
REMARK   77  A    between atoms: _186  and  _187
REMARK   78  A    between atoms: _186  and  _189
REMARK   79  A    between atoms: _189  and  _190
REMARK   80  A    between atoms: _195  and  _196
REMARK   81  A    between atoms: _198  and  _200
REMARK   82  A    between atoms: _200  and  _201
REMARK   83  A    between atoms: _204  and  _206
REMARK   84  A    between atoms: _206  and  _207
REMARK   85  A    between atoms: _206  and  _209
REMARK   86  A    between atoms: _209  and  _210
REMARK   87  A    between atoms: _212  and  _214
REMARK   88  A    between atoms: _214  and  _215
REMARK   89  A    between atoms: _217  and  _219
REMARK   90  A    between atoms: _219  and  _220
REMARK   91  A    between atoms: _219  and  _222
REMARK   92  A    between atoms: _222  and  _223
REMARK   93  A    between atoms: _223  and  _224
REMARK   94  A    between atoms: _224  and  _225
REMARK   95  A    between atoms: _234  and  _236
REMARK   96  A    between atoms: _236  and  _237
REMARK   97  A    between atoms: _236  and  _239
REMARK   98  A    between atoms: _239  and  _240
REMARK   99  A    between atoms: _243  and  _245
REMARK  100  A    between atoms: _245  and  _246
REMARK  101  A    between atoms: _245  and  _248
REMARK  102  A    between atoms: _248  and  _249
REMARK  103  A    between atoms: _252  and  _254
REMARK  104  A    between atoms: _254  and  _255
REMARK  105  A    between atoms: _254  and  _257
REMARK  106  A    between atoms: _261  and  _262
REMARK  107  A    between atoms: _267  and  _269
REMARK  108  A    between atoms: _269  and  _270
REMARK  109  A    between atoms: _269  and  _272
REMARK  110  A    between atoms: _272  and  _273
REMARK  111  A    between atoms: _276  and  _278
REMARK  112  A    between atoms: _278  and  _279
REMARK  113  A    between atoms: _278  and  _281
REMARK  114  A    between atoms: _281  and  _282
REMARK  115  A    between atoms: _287  and  _288
REMARK  116  A    between atoms: _290  and  _292
REMARK  117  A    between atoms: _292  and  _293
REMARK  118  A    between atoms: _292  and  _295
REMARK  119  A    between atoms: _295  and  _296
REMARK  120  A    between atoms: _296  and  _297
REMARK  121  A    between atoms: _300  and  _302
REMARK  122  A    between atoms: _302  and  _303
REMARK  123  A    between atoms: _305  and  _307
REMARK  124  A    between atoms: _307  and  _308
REMARK  125  A    between atoms: _307  and  _310
REMARK  126  A    between atoms: _310  and  _311
REMARK  127  A    between atoms: _316  and  _317
REMARK  128  A    between atoms: _319  and  _321
REMARK  129  A    between atoms: _321  and  _322
REMARK  130  A    between atoms: _325  and  _327
REMARK  131  A    between atoms: _327  and  _328
REMARK  132  A    between atoms: _327  and  _330
REMARK  133  A    between atoms: _330  and  _331
REMARK  134  A    between atoms: _335  and  _336
REMARK  135  A    between atoms: _341  and  _343
REMARK  136  A    between atoms: _343  and  _344
REMARK  137  A    between atoms: _343  and  _346
REMARK  138  A    between atoms: _346  and  _347
REMARK  139  A    between atoms: _352  and  _354
REMARK  140  A    between atoms: _354  and  _355
REMARK  141  A    between atoms: _358  and  _360
REMARK  142  A    between atoms: _360  and  _361
REMARK  143  A    between atoms: _360  and  _363
REMARK  144  A    between atoms: _363  and  _364
REMARK  145  A    between atoms: _367  and  _369
REMARK  146  A    between atoms: _369  and  _370
REMARK  147  A    between atoms: _369  and  _372
REMARK  148  A    between atoms: _372  and  _373
REMARK  149  A    between atoms: _376  and  _378
REMARK  150  A    between atoms: _378  and  _379
REMARK  151  A    between atoms: _381  and  _383
REMARK  152  A    between atoms: _383  and  _384
REMARK  153  A    between atoms: _386  and  _388
REMARK  154  A    between atoms: _388  and  _389
REMARK  155  A    between atoms: _388  and  _391
REMARK  156  A    between atoms: _391  and  _392
REMARK  157  A    between atoms: _394  and  _396
REMARK  158  A    between atoms: _396  and  _397
REMARK  159  A    between atoms: _396  and  _399
REMARK  160  A    between atoms: _399  and  _400
REMARK  161  A    between atoms: _403  and  _405
REMARK  162  A    between atoms: _405  and  _406
REMARK  163  A    between atoms: _405  and  _408
REMARK  164  A    between atoms: _408  and  _409
REMARK  165  A    between atoms: _412  and  _414
REMARK  166  A    between atoms: _414  and  _415
REMARK  167  A    between atoms: _418  and  _420
REMARK  168  A    between atoms: _420  and  _421
REMARK  169  A    between atoms: _420  and  _423
REMARK  170  A    between atoms: _423  and  _424
REMARK  171  A    between atoms: _426  and  _428
REMARK  172  A    between atoms: _428  and  _429
REMARK  173  A    between atoms: _428  and  _431
REMARK  174  A    between atoms: _431  and  _432
REMARK  175  A    between atoms: _435  and  _437
REMARK  176  A    between atoms: _437  and  _438
REMARK  177  A    between atoms: _437  and  _440
REMARK  178  A    between atoms: _440  and  _441
REMARK  179  A    between atoms: _443  and  _445
REMARK  180  A    between atoms: _445  and  _446
REMARK  181  A    between atoms: _445  and  _448
REMARK  182  A    between atoms: _448  and  _449
REMARK  183  A    between atoms: _452  and  _454
REMARK  184  A    between atoms: _454  and  _455
REMARK  185  A    between atoms: _454  and  _457
REMARK  186  A    between atoms: _457  and  _458
REMARK  187  A    between atoms: _464  and  _466
REMARK  188  A    between atoms: _466  and  _467
REMARK  189  A    between atoms: _466  and  _469
REMARK  190  A    between atoms: _469  and  _470
REMARK  191  A    between atoms: _470  and  _471
REMARK  192  A    between atoms: _476  and  _478
REMARK  193  A    between atoms: _478  and  _479
REMARK  194  A    between atoms: _478  and  _481
REMARK  195  A    between atoms: _481  and  _482
REMARK  196  A    between atoms: _482  and  _483
REMARK  197  A    between atoms: _488  and  _490
REMARK  198  A    between atoms: _490  and  _491
REMARK  199  A    between atoms: _490  and  _493
REMARK  200  A    between atoms: _493  and  _494
REMARK  201  A    between atoms: _494  and  _495
REMARK  202  A    between atoms: _497  and  _499
REMARK  203  A    between atoms: _499  and  _500
REMARK  204  A    between atoms: _499  and  _502
REMARK  205  A    between atoms: _502  and  _503
REMARK                            x       y       z     vdW  Elec       q    Type
REMARK                         _______ _______ _______ _____ _____    ______ ____
ROOT
ATOM      1  O   HOH     1      16.643 -11.670  38.668  0.00  0.00    +0.000 OA
ENDROOT
TORSDOF 0
REMARK  Name = ../refined-set-2016/2fxu/2fxu_pocket.pdb
REMARK  205 active torsions:
REMARK  status: ('A' for Active; 'I' for Inactive)
REMARK    1  A    between atoms: _1  and  _3
REMARK    2  A    between atoms: _3  and  _4
REMARK    3  A    between atoms: _3  and  _6
REMARK    4  A    between atoms: _6  and  _7
REMARK    5  A    between atoms: _10  and  _12
REMARK    6  A    between atoms: _12  and  _13
REMARK    7  A    between atoms: _12  and  _15
REMARK    8  A    between atoms: _15  and  _16
REMARK    9  A    between atoms: _19  and  _21
REMARK   10  A    between atoms: _21  and  _22
REMARK   11  A    between atoms: _21  and  _24
REMARK   12  A    between atoms: _24  and  _25
REMARK   13  A    between atoms: _28  and  _30
REMARK   14  A    between atoms: _30  and  _31
REMARK   15  A    between atoms: _30  and  _33
REMARK   16  A    between atoms: _33  and  _34
REMARK   17  A    between atoms: _34  and  _35
REMARK   18  A    between atoms: _39  and  _40
REMARK   19  A    between atoms: _45  and  _47
REMARK   20  A    between atoms: _47  and  _48
REMARK   21  A    between atoms: _47  and  _50
REMARK   22  A    between atoms: _50  and  _51
REMARK   23  A    between atoms: _54  and  _56
REMARK   24  A    between atoms: _56  and  _57
REMARK   25  A    between atoms: _56  and  _59
REMARK   26  A    between atoms: _59  and  _60
REMARK   27  A    between atoms: _65  and  _67
REMARK   28  A    between atoms: _67  and  _68
REMARK   29  A    between atoms: _67  and  _70
REMARK   30  A    between atoms: _70  and  _71
REMARK   31  A    between atoms: _71  and  _72
REMARK   32  A    between atoms: _72  and  _73
REMARK   33  A    between atoms: _73  and  _74
REMARK   34  A    between atoms: _78  and  _80
REMARK   35  A    between atoms: _80  and  _81
REMARK   36  A    between atoms: _80  and  _83
REMARK   37  A    between atoms: _83  and  _84
REMARK   38  A    between atoms: _84  and  _85
REMARK   39  A    between atoms: _85  and  _86
REMARK   40  A    between atoms: _95  and  _97
REMARK   41  A    between atoms: _97  and  _98
REMARK   42  A    between atoms: _97  and  _100
REMARK   43  A    between atoms: _100  and  _101
REMARK   44  A    between atoms: _106  and  _107
REMARK   45  A    between atoms: _109  and  _111
REMARK   46  A    between atoms: _111  and  _112
REMARK   47  A    between atoms: _111  and  _114
REMARK   48  A    between atoms: _117  and  _119
REMARK   49  A    between atoms: _119  and  _120
REMARK   50  A    between atoms: _123  and  _125
REMARK   51  A    between atoms: _125  and  _126
REMARK   52  A    between atoms: _125  and  _128
REMARK   53  A    between atoms: _128  and  _129
REMARK   54  A    between atoms: _132  and  _134
REMARK   55  A    between atoms: _134  and  _135
REMARK   56  A    between atoms: _134  and  _137
REMARK   57  A    between atoms: _137  and  _138
REMARK   58  A    between atoms: _138  and  _139
REMARK   59  A    between atoms: _144  and  _146
REMARK   60  A    between atoms: _146  and  _147
REMARK   61  A    between atoms: _150  and  _152
REMARK   62  A    between atoms: _152  and  _153
REMARK   63  A    between atoms: _152  and  _155
REMARK   64  A    between atoms: _158  and  _160
REMARK   65  A    between atoms: _160  and  _161
REMARK   66  A    between atoms: _160  and  _163
REMARK   67  A    between atoms: _163  and  _164
REMARK   68  A    between atoms: _167  and  _169
REMARK   69  A    between atoms: _169  and  _170
REMARK   70  A    between atoms: _169  and  _172
REMARK   71  A    between atoms: _172  and  _173
REMARK   72  A    between atoms: _175  and  _177
REMARK   73  A    between atoms: _177  and  _178
REMARK   74  A    between atoms: _177  and  _180
REMARK   75  A    between atoms: _180  and  _181
REMARK   76  A    between atoms: _184  and  _186
REMARK   77  A    between atoms: _186  and  _187
REMARK   78  A    between atoms: _186  and  _189
REMARK   79  A    between atoms: _189  and  _190
REMARK   80  A    between atoms: _195  and  _196
REMARK   81  A    between atoms: _198  and  _200
REMARK   82  A    between atoms: _200  and  _201
REMARK   83  A    between atoms: _204  and  _206
REMARK   84  A    between atoms: _206  and  _207
REMARK   85  A    between atoms: _206  and  _209
REMARK   86  A    between atoms: _209  and  _210
REMARK   87  A    between atoms: _212  and  _214
REMARK   88  A    between atoms: _214  and  _215
REMARK   89  A    between atoms: _217  and  _219
REMARK   90  A    between atoms: _219  and  _220
REMARK   91  A    between atoms: _219  and  _222
REMARK   92  A    between atoms: _222  and  _223
REMARK   93  A    between atoms: _223  and  _224
REMARK   94  A    between atoms: _224  and  _225
REMARK   95  A    between atoms: _234  and  _236
REMARK   96  A    between atoms: _236  and  _237
REMARK   97  A    between atoms: _236  and  _239
REMARK   98  A    between atoms: _239  and  _240
REMARK   99  A    between atoms: _243  and  _245
REMARK  100  A    between atoms: _245  and  _246
REMARK  101  A    between atoms: _245  and  _248
REMARK  102  A    between atoms: _248  and  _249
REMARK  103  A    between atoms: _252  and  _254
REMARK  104  A    between atoms: _254  and  _255
REMARK  105  A    between atoms: _254  and  _257
REMARK  106  A    between atoms: _261  and  _262
REMARK  107  A    between atoms: _267  and  _269
REMARK  108  A    between atoms: _269  and  _270
REMARK  109  A    between atoms: _269  and  _272
REMARK  110  A    between atoms: _272  and  _273
REMARK  111  A    between atoms: _276  and  _278
REMARK  112  A    between atoms: _278  and  _279
REMARK  113  A    between atoms: _278  and  _281
REMARK  114  A    between atoms: _281  and  _282
REMARK  115  A    between atoms: _287  and  _288
REMARK  116  A    between atoms: _290  and  _292
REMARK  117  A    between atoms: _292  and  _293
REMARK  118  A    between atoms: _292  and  _295
REMARK  119  A    between atoms: _295  and  _296
REMARK  120  A    between atoms: _296  and  _297
REMARK  121  A    between atoms: _300  and  _302
REMARK  122  A    between atoms: _302  and  _303
REMARK  123  A    between atoms: _305  and  _307
REMARK  124  A    between atoms: _307  and  _308
REMARK  125  A    between atoms: _307  and  _310
REMARK  126  A    between atoms: _310  and  _311
REMARK  127  A    between atoms: _316  and  _317
REMARK  128  A    between atoms: _319  and  _321
REMARK  129  A    between atoms: _321  and  _322
REMARK  130  A    between atoms: _325  and  _327
REMARK  131  A    between atoms: _327  and  _328
REMARK  132  A    between atoms: _327  and  _330
REMARK  133  A    between atoms: _330  and  _331
REMARK  134  A    between atoms: _335  and  _336
REMARK  135  A    between atoms: _341  and  _343
REMARK  136  A    between atoms: _343  and  _344
REMARK  137  A    between atoms: _343  and  _346
REMARK  138  A    between atoms: _346  and  _347
REMARK  139  A    between atoms: _352  and  _354
REMARK  140  A    between atoms: _354  and  _355
REMARK  141  A    between atoms: _358  and  _360
REMARK  142  A    between atoms: _360  and  _361
REMARK  143  A    between atoms: _360  and  _363
REMARK  144  A    between atoms: _363  and  _364
REMARK  145  A    between atoms: _367  and  _369
REMARK  146  A    between atoms: _369  and  _370
REMARK  147  A    between atoms: _369  and  _372
REMARK  148  A    between atoms: _372  and  _373
REMARK  149  A    between atoms: _376  and  _378
REMARK  150  A    between atoms: _378  and  _379
REMARK  151  A    between atoms: _381  and  _383
REMARK  152  A    between atoms: _383  and  _384
REMARK  153  A    between atoms: _386  and  _388
REMARK  154  A    between atoms: _388  and  _389
REMARK  155  A    between atoms: _388  and  _391
REMARK  156  A    between atoms: _391  and  _392
REMARK  157  A    between atoms: _394  and  _396
REMARK  158  A    between atoms: _396  and  _397
REMARK  159  A    between atoms: _396  and  _399
REMARK  160  A    between atoms: _399  and  _400
REMARK  161  A    between atoms: _403  and  _405
REMARK  162  A    between atoms: _405  and  _406
REMARK  163  A    between atoms: _405  and  _408
REMARK  164  A    between atoms: _408  and  _409
REMARK  165  A    between atoms: _412  and  _414
REMARK  166  A    between atoms: _414  and  _415
REMARK  167  A    between atoms: _418  and  _420
REMARK  168  A    between atoms: _420  and  _421
REMARK  169  A    between atoms: _420  and  _423
REMARK  170  A    between atoms: _423  and  _424
REMARK  171  A    between atoms: _426  and  _428
REMARK  172  A    between atoms: _428  and  _429
REMARK  173  A    between atoms: _428  and  _431
REMARK  174  A    between atoms: _431  and  _432
REMARK  175  A    between atoms: _435  and  _437
REMARK  176  A    between atoms: _437  and  _438
REMARK  177  A    between atoms: _437  and  _440
REMARK  178  A    between atoms: _440  and  _441
REMARK  179  A    between atoms: _443  and  _445
REMARK  180  A    between atoms: _445  and  _446
REMARK  181  A    between atoms: _445  and  _448
REMARK  182  A    between atoms: _448  and  _449
REMARK  183  A    between atoms: _452  and  _454
REMARK  184  A    between atoms: _454  and  _455
REMARK  185  A    between atoms: _454  and  _457
REMARK  186  A    between atoms: _457  and  _458
REMARK  187  A    between atoms: _464  and  _466
REMARK  188  A    between atoms: _466  and  _467
REMARK  189  A    between atoms: _466  and  _469
REMARK  190  A    between atoms: _469  and  _470
REMARK  191  A    between atoms: _470  and  _471
REMARK  192  A    between atoms: _476  and  _478
REMARK  193  A    between atoms: _478  and  _479
REMARK  194  A    between atoms: _478  and  _481
REMARK  195  A    between atoms: _481  and  _482
REMARK  196  A    between atoms: _482  and  _483
REMARK  197  A    between atoms: _488  and  _490
REMARK  198  A    between atoms: _490  and  _491
REMARK  199  A    between atoms: _490  and  _493
REMARK  200  A    between atoms: _493  and  _494
REMARK  201  A    between atoms: _494  and  _495
REMARK  202  A    between atoms: _497  and  _499
REMARK  203  A    between atoms: _499  and  _500
REMARK  204  A    between atoms: _499  and  _502
REMARK  205  A    between atoms: _502  and  _503
REMARK                            x       y       z     vdW  Elec       q    Type
REMARK                         _______ _______ _______ _____ _____    ______ ____
ROOT
ATOM      1  O   HOH     1      21.850 -19.703  34.250  0.00  0.00    +0.000 OA
ENDROOT
TORSDOF 0
REMARK  Name = ../refined-set-2016/2fxu/2fxu_pocket.pdb
REMARK  205 active torsions:
REMARK  status: ('A' for Active; 'I' for Inactive)
REMARK    1  A    between atoms: _1  and  _3
REMARK    2  A    between atoms: _3  and  _4
REMARK    3  A    between atoms: _3  and  _6
REMARK    4  A    between atoms: _6  and  _7
REMARK    5  A    between atoms: _10  and  _12
REMARK    6  A    between atoms: _12  and  _13
REMARK    7  A    between atoms: _12  and  _15
REMARK    8  A    between atoms: _15  and  _16
REMARK    9  A    between atoms: _19  and  _21
REMARK   10  A    between atoms: _21  and  _22
REMARK   11  A    between atoms: _21  and  _24
REMARK   12  A    between atoms: _24  and  _25
REMARK   13  A    between atoms: _28  and  _30
REMARK   14  A    between atoms: _30  and  _31
REMARK   15  A    between atoms: _30  and  _33
REMARK   16  A    between atoms: _33  and  _34
REMARK   17  A    between atoms: _34  and  _35
REMARK   18  A    between atoms: _39  and  _40
REMARK   19  A    between atoms: _45  and  _47
REMARK   20  A    between atoms: _47  and  _48
REMARK   21  A    between atoms: _47  and  _50
REMARK   22  A    between atoms: _50  and  _51
REMARK   23  A    between atoms: _54  and  _56
REMARK   24  A    between atoms: _56  and  _57
REMARK   25  A    between atoms: _56  and  _59
REMARK   26  A    between atoms: _59  and  _60
REMARK   27  A    between atoms: _65  and  _67
REMARK   28  A    between atoms: _67  and  _68
REMARK   29  A    between atoms: _67  and  _70
REMARK   30  A    between atoms: _70  and  _71
REMARK   31  A    between atoms: _71  and  _72
REMARK   32  A    between atoms: _72  and  _73
REMARK   33  A    between atoms: _73  and  _74
REMARK   34  A    between atoms: _78  and  _80
REMARK   35  A    between atoms: _80  and  _81
REMARK   36  A    between atoms: _80  and  _83
REMARK   37  A    between atoms: _83  and  _84
REMARK   38  A    between atoms: _84  and  _85
REMARK   39  A    between atoms: _85  and  _86
REMARK   40  A    between atoms: _95  and  _97
REMARK   41  A    between atoms: _97  and  _98
REMARK   42  A    between atoms: _97  and  _100
REMARK   43  A    between atoms: _100  and  _101
REMARK   44  A    between atoms: _106  and  _107
REMARK   45  A    between atoms: _109  and  _111
REMARK   46  A    between atoms: _111  and  _112
REMARK   47  A    between atoms: _111  and  _114
REMARK   48  A    between atoms: _117  and  _119
REMARK   49  A    between atoms: _119  and  _120
REMARK   50  A    between atoms: _123  and  _125
REMARK   51  A    between atoms: _125  and  _126
REMARK   52  A    between atoms: _125  and  _128
REMARK   53  A    between atoms: _128  and  _129
REMARK   54  A    between atoms: _132  and  _134
REMARK   55  A    between atoms: _134  and  _135
REMARK   56  A    between atoms: _134  and  _137
REMARK   57  A    between atoms: _137  and  _138
REMARK   58  A    between atoms: _138  and  _139
REMARK   59  A    between atoms: _144  and  _146
REMARK   60  A    between atoms: _146  and  _147
REMARK   61  A    between atoms: _150  and  _152
REMARK   62  A    between atoms: _152  and  _153
REMARK   63  A    between atoms: _152  and  _155
REMARK   64  A    between atoms: _158  and  _160
REMARK   65  A    between atoms: _160  and  _161
REMARK   66  A    between atoms: _160  and  _163
REMARK   67  A    between atoms: _163  and  _164
REMARK   68  A    between atoms: _167  and  _169
REMARK   69  A    between atoms: _169  and  _170
REMARK   70  A    between atoms: _169  and  _172
REMARK   71  A    between atoms: _172  and  _173
REMARK   72  A    between atoms: _175  and  _177
REMARK   73  A    between atoms: _177  and  _178
REMARK   74  A    between atoms: _177  and  _180
REMARK   75  A    between atoms: _180  and  _181
REMARK   76  A    between atoms: _184  and  _186
REMARK   77  A    between atoms: _186  and  _187
REMARK   78  A    between atoms: _186  and  _189
REMARK   79  A    between atoms: _189  and  _190
REMARK   80  A    between atoms: _195  and  _196
REMARK   81  A    between atoms: _198  and  _200
REMARK   82  A    between atoms: _200  and  _201
REMARK   83  A    between atoms: _204  and  _206
REMARK   84  A    between atoms: _206  and  _207
REMARK   85  A    between atoms: _206  and  _209
REMARK   86  A    between atoms: _209  and  _210
REMARK   87  A    between atoms: _212  and  _214
REMARK   88  A    between atoms: _214  and  _215
REMARK   89  A    between atoms: _217  and  _219
REMARK   90  A    between atoms: _219  and  _220
REMARK   91  A    between atoms: _219  and  _222
REMARK   92  A    between atoms: _222  and  _223
REMARK   93  A    between atoms: _223  and  _224
REMARK   94  A    between atoms: _224  and  _225
REMARK   95  A    between atoms: _234  and  _236
REMARK   96  A    between atoms: _236  and  _237
REMARK   97  A    between atoms: _236  and  _239
REMARK   98  A    between atoms: _239  and  _240
REMARK   99  A    between atoms: _243  and  _245
REMARK  100  A    between atoms: _245  and  _246
REMARK  101  A    between atoms: _245  and  _248
REMARK  102  A    between atoms: _248  and  _249
REMARK  103  A    between atoms: _252  and  _254
REMARK  104  A    between atoms: _254  and  _255
REMARK  105  A    between atoms: _254  and  _257
REMARK  106  A    between atoms: _261  and  _262
REMARK  107  A    between atoms: _267  and  _269
REMARK  108  A    between atoms: _269  and  _270
REMARK  109  A    between atoms: _269  and  _272
REMARK  110  A    between atoms: _272  and  _273
REMARK  111  A    between atoms: _276  and  _278
REMARK  112  A    between atoms: _278  and  _279
REMARK  113  A    between atoms: _278  and  _281
REMARK  114  A    between atoms: _281  and  _282
REMARK  115  A    between atoms: _287  and  _288
REMARK  116  A    between atoms: _290  and  _292
REMARK  117  A    between atoms: _292  and  _293
REMARK  118  A    between atoms: _292  and  _295
REMARK  119  A    between atoms: _295  and  _296
REMARK  120  A    between atoms: _296  and  _297
REMARK  121  A    between atoms: _300  and  _302
REMARK  122  A    between atoms: _302  and  _303
REMARK  123  A    between atoms: _305  and  _307
REMARK  124  A    between atoms: _307  and  _308
REMARK  125  A    between atoms: _307  and  _310
REMARK  126  A    between atoms: _310  and  _311
REMARK  127  A    between atoms: _316  and  _317
REMARK  128  A    between atoms: _319  and  _321
REMARK  129  A    between atoms: _321  and  _322
REMARK  130  A    between atoms: _325  and  _327
REMARK  131  A    between atoms: _327  and  _328
REMARK  132  A    between atoms: _327  and  _330
REMARK  133  A    between atoms: _330  and  _331
REMARK  134  A    between atoms: _335  and  _336
REMARK  135  A    between atoms: _341  and  _343
REMARK  136  A    between atoms: _343  and  _344
REMARK  137  A    between atoms: _343  and  _346
REMARK  138  A    between atoms: _346  and  _347
REMARK  139  A    between atoms: _352  and  _354
REMARK  140  A    between atoms: _354  and  _355
REMARK  141  A    between atoms: _358  and  _360
REMARK  142  A    between atoms: _360  and  _361
REMARK  143  A    between atoms: _360  and  _363
REMARK  144  A    between atoms: _363  and  _364
REMARK  145  A    between atoms: _367  and  _369
REMARK  146  A    between atoms: _369  and  _370
REMARK  147  A    between atoms: _369  and  _372
REMARK  148  A    between atoms: _372  and  _373
REMARK  149  A    between atoms: _376  and  _378
REMARK  150  A    between atoms: _378  and  _379
REMARK  151  A    between atoms: _381  and  _383
REMARK  152  A    between atoms: _383  and  _384
REMARK  153  A    between atoms: _386  and  _388
REMARK  154  A    between atoms: _388  and  _389
REMARK  155  A    between atoms: _388  and  _391
REMARK  156  A    between atoms: _391  and  _392
REMARK  157  A    between atoms: _394  and  _396
REMARK  158  A    between atoms: _396  and  _397
REMARK  159  A    between atoms: _396  and  _399
REMARK  160  A    between atoms: _399  and  _400
REMARK  161  A    between atoms: _403  and  _405
REMARK  162  A    between atoms: _405  and  _406
REMARK  163  A    between atoms: _405  and  _408
REMARK  164  A    between atoms: _408  and  _409
REMARK  165  A    between atoms: _412  and  _414
REMARK  166  A    between atoms: _414  and  _415
REMARK  167  A    between atoms: _418  and  _420
REMARK  168  A    between atoms: _420  and  _421
REMARK  169  A    between atoms: _420  and  _423
REMARK  170  A    between atoms: _423  and  _424
REMARK  171  A    between atoms: _426  and  _428
REMARK  172  A    between atoms: _428  and  _429
REMARK  173  A    between atoms: _428  and  _431
REMARK  174  A    between atoms: _431  and  _432
REMARK  175  A    between atoms: _435  and  _437
REMARK  176  A    between atoms: _437  and  _438
REMARK  177  A    between atoms: _437  and  _440
REMARK  178  A    between atoms: _440  and  _441
REMARK  179  A    between atoms: _443  and  _445
REMARK  180  A    between atoms: _445  and  _446
REMARK  181  A    between atoms: _445  and  _448
REMARK  182  A    between atoms: _448  and  _449
REMARK  183  A    between atoms: _452  and  _454
REMARK  184  A    between atoms: _454  and  _455
REMARK  185  A    between atoms: _454  and  _457
REMARK  186  A    between atoms: _457  and  _458
REMARK  187  A    between atoms: _464  and  _466
REMARK  188  A    between atoms: _466  and  _467
REMARK  189  A    between atoms: _466  and  _469
REMARK  190  A    between atoms: _469  and  _470
REMARK  191  A    between atoms: _470  and  _471
REMARK  192  A    between atoms: _476  and  _478
REMARK  193  A    between atoms: _478  and  _479
REMARK  194  A    between atoms: _478  and  _481
REMARK  195  A    between atoms: _481  and  _482
REMARK  196  A    between atoms: _482  and  _483
REMARK  197  A    between atoms: _488  and  _490
REMARK  198  A    between atoms: _490  and  _491
REMARK  199  A    between atoms: _490  and  _493
REMARK  200  A    between atoms: _493  and  _494
REMARK  201  A    between atoms: _494  and  _495
REMARK  202  A    between atoms: _497  and  _499
REMARK  203  A    between atoms: _499  and  _500
REMARK  204  A    between atoms: _499  and  _502
REMARK  205  A    between atoms: _502  and  _503
REMARK                            x       y       z     vdW  Elec       q    Type
REMARK                         _______ _______ _______ _____ _____    ______ ____
ROOT
ATOM      1  O   HOH     1       3.836 -16.636  44.646  0.00  0.00    +0.000 OA
ENDROOT
TORSDOF 0
REMARK  Name = ../refined-set-2016/2fxu/2fxu_pocket.pdb
REMARK  205 active torsions:
REMARK  status: ('A' for Active; 'I' for Inactive)
REMARK    1  A    between atoms: _1  and  _3
REMARK    2  A    between atoms: _3  and  _4
REMARK    3  A    between atoms: _3  and  _6
REMARK    4  A    between atoms: _6  and  _7
REMARK    5  A    between atoms: _10  and  _12
REMARK    6  A    between atoms: _12  and  _13
REMARK    7  A    between atoms: _12  and  _15
REMARK    8  A    between atoms: _15  and  _16
REMARK    9  A    between atoms: _19  and  _21
REMARK   10  A    between atoms: _21  and  _22
REMARK   11  A    between atoms: _21  and  _24
REMARK   12  A    between atoms: _24  and  _25
REMARK   13  A    between atoms: _28  and  _30
REMARK   14  A    between atoms: _30  and  _31
REMARK   15  A    between atoms: _30  and  _33
REMARK   16  A    between atoms: _33  and  _34
REMARK   17  A    between atoms: _34  and  _35
REMARK   18  A    between atoms: _39  and  _40
REMARK   19  A    between atoms: _45  and  _47
REMARK   20  A    between atoms: _47  and  _48
REMARK   21  A    between atoms: _47  and  _50
REMARK   22  A    between atoms: _50  and  _51
REMARK   23  A    between atoms: _54  and  _56
REMARK   24  A    between atoms: _56  and  _57
REMARK   25  A    between atoms: _56  and  _59
REMARK   26  A    between atoms: _59  and  _60
REMARK   27  A    between atoms: _65  and  _67
REMARK   28  A    between atoms: _67  and  _68
REMARK   29  A    between atoms: _67  and  _70
REMARK   30  A    between atoms: _70  and  _71
REMARK   31  A    between atoms: _71  and  _72
REMARK   32  A    between atoms: _72  and  _73
REMARK   33  A    between atoms: _73  and  _74
REMARK   34  A    between atoms: _78  and  _80
REMARK   35  A    between atoms: _80  and  _81
REMARK   36  A    between atoms: _80  and  _83
REMARK   37  A    between atoms: _83  and  _84
REMARK   38  A    between atoms: _84  and  _85
REMARK   39  A    between atoms: _85  and  _86
REMARK   40  A    between atoms: _95  and  _97
REMARK   41  A    between atoms: _97  and  _98
REMARK   42  A    between atoms: _97  and  _100
REMARK   43  A    between atoms: _100  and  _101
REMARK   44  A    between atoms: _106  and  _107
REMARK   45  A    between atoms: _109  and  _111
REMARK   46  A    between atoms: _111  and  _112
REMARK   47  A    between atoms: _111  and  _114
REMARK   48  A    between atoms: _117  and  _119
REMARK   49  A    between atoms: _119  and  _120
REMARK   50  A    between atoms: _123  and  _125
REMARK   51  A    between atoms: _125  and  _126
REMARK   52  A    between atoms: _125  and  _128
REMARK   53  A    between atoms: _128  and  _129
REMARK   54  A    between atoms: _132  and  _134
REMARK   55  A    between atoms: _134  and  _135
REMARK   56  A    between atoms: _134  and  _137
REMARK   57  A    between atoms: _137  and  _138
REMARK   58  A    between atoms: _138  and  _139
REMARK   59  A    between atoms: _144  and  _146
REMARK   60  A    between atoms: _146  and  _147
REMARK   61  A    between atoms: _150  and  _152
REMARK   62  A    between atoms: _152  and  _153
REMARK   63  A    between atoms: _152  and  _155
REMARK   64  A    between atoms: _158  and  _160
REMARK   65  A    between atoms: _160  and  _161
REMARK   66  A    between atoms: _160  and  _163
REMARK   67  A    between atoms: _163  and  _164
REMARK   68  A    between atoms: _167  and  _169
REMARK   69  A    between atoms: _169  and  _170
REMARK   70  A    between atoms: _169  and  _172
REMARK   71  A    between atoms: _172  and  _173
REMARK   72  A    between atoms: _175  and  _177
REMARK   73  A    between atoms: _177  and  _178
REMARK   74  A    between atoms: _177  and  _180
REMARK   75  A    between atoms: _180  and  _181
REMARK   76  A    between atoms: _184  and  _186
REMARK   77  A    between atoms: _186  and  _187
REMARK   78  A    between atoms: _186  and  _189
REMARK   79  A    between atoms: _189  and  _190
REMARK   80  A    between atoms: _195  and  _196
REMARK   81  A    between atoms: _198  and  _200
REMARK   82  A    between atoms: _200  and  _201
REMARK   83  A    between atoms: _204  and  _206
REMARK   84  A    between atoms: _206  and  _207
REMARK   85  A    between atoms: _206  and  _209
REMARK   86  A    between atoms: _209  and  _210
REMARK   87  A    between atoms: _212  and  _214
REMARK   88  A    between atoms: _214  and  _215
REMARK   89  A    between atoms: _217  and  _219
REMARK   90  A    between atoms: _219  and  _220
REMARK   91  A    between atoms: _219  and  _222
REMARK   92  A    between atoms: _222  and  _223
REMARK   93  A    between atoms: _223  and  _224
REMARK   94  A    between atoms: _224  and  _225
REMARK   95  A    between atoms: _234  and  _236
REMARK   96  A    between atoms: _236  and  _237
REMARK   97  A    between atoms: _236  and  _239
REMARK   98  A    between atoms: _239  and  _240
REMARK   99  A    between atoms: _243  and  _245
REMARK  100  A    between atoms: _245  and  _246
REMARK  101  A    between atoms: _245  and  _248
REMARK  102  A    between atoms: _248  and  _249
REMARK  103  A    between atoms: _252  and  _254
REMARK  104  A    between atoms: _254  and  _255
REMARK  105  A    between atoms: _254  and  _257
REMARK  106  A    between atoms: _261  and  _262
REMARK  107  A    between atoms: _267  and  _269
REMARK  108  A    between atoms: _269  and  _270
REMARK  109  A    between atoms: _269  and  _272
REMARK  110  A    between atoms: _272  and  _273
REMARK  111  A    between atoms: _276  and  _278
REMARK  112  A    between atoms: _278  and  _279
REMARK  113  A    between atoms: _278  and  _281
REMARK  114  A    between atoms: _281  and  _282
REMARK  115  A    between atoms: _287  and  _288
REMARK  116  A    between atoms: _290  and  _292
REMARK  117  A    between atoms: _292  and  _293
REMARK  118  A    between atoms: _292  and  _295
REMARK  119  A    between atoms: _295  and  _296
REMARK  120  A    between atoms: _296  and  _297
REMARK  121  A    between atoms: _300  and  _302
REMARK  122  A    between atoms: _302  and  _303
REMARK  123  A    between atoms: _305  and  _307
REMARK  124  A    between atoms: _307  and  _308
REMARK  125  A    between atoms: _307  and  _310
REMARK  126  A    between atoms: _310  and  _311
REMARK  127  A    between atoms: _316  and  _317
REMARK  128  A    between atoms: _319  and  _321
REMARK  129  A    between atoms: _321  and  _322
REMARK  130  A    between atoms: _325  and  _327
REMARK  131  A    between atoms: _327  and  _328
REMARK  132  A    between atoms: _327  and  _330
REMARK  133  A    between atoms: _330  and  _331
REMARK  134  A    between atoms: _335  and  _336
REMARK  135  A    between atoms: _341  and  _343
REMARK  136  A    between atoms: _343  and  _344
REMARK  137  A    between atoms: _343  and  _346
REMARK  138  A    between atoms: _346  and  _347
REMARK  139  A    between atoms: _352  and  _354
REMARK  140  A    between atoms: _354  and  _355
REMARK  141  A    between atoms: _358  and  _360
REMARK  142  A    between atoms: _360  and  _361
REMARK  143  A    between atoms: _360  and  _363
REMARK  144  A    between atoms: _363  and  _364
REMARK  145  A    between atoms: _367  and  _369
REMARK  146  A    between atoms: _369  and  _370
REMARK  147  A    between atoms: _369  and  _372
REMARK  148  A    between atoms: _372  and  _373
REMARK  149  A    between atoms: _376  and  _378
REMARK  150  A    between atoms: _378  and  _379
REMARK  151  A    between atoms: _381  and  _383
REMARK  152  A    between atoms: _383  and  _384
REMARK  153  A    between atoms: _386  and  _388
REMARK  154  A    between atoms: _388  and  _389
REMARK  155  A    between atoms: _388  and  _391
REMARK  156  A    between atoms: _391  and  _392
REMARK  157  A    between atoms: _394  and  _396
REMARK  158  A    between atoms: _396  and  _397
REMARK  159  A    between atoms: _396  and  _399
REMARK  160  A    between atoms: _399  and  _400
REMARK  161  A    between atoms: _403  and  _405
REMARK  162  A    between atoms: _405  and  _406
REMARK  163  A    between atoms: _405  and  _408
REMARK  164  A    between atoms: _408  and  _409
REMARK  165  A    between atoms: _412  and  _414
REMARK  166  A    between atoms: _414  and  _415
REMARK  167  A    between atoms: _418  and  _420
REMARK  168  A    between atoms: _420  and  _421
REMARK  169  A    between atoms: _420  and  _423
REMARK  170  A    between atoms: _423  and  _424
REMARK  171  A    between atoms: _426  and  _428
REMARK  172  A    between atoms: _428  and  _429
REMARK  173  A    between atoms: _428  and  _431
REMARK  174  A    between atoms: _431  and  _432
REMARK  175  A    between atoms: _435  and  _437
REMARK  176  A    between atoms: _437  and  _438
REMARK  177  A    between atoms: _437  and  _440
REMARK  178  A    between atoms: _440  and  _441
REMARK  179  A    between atoms: _443  and  _445
REMARK  180  A    between atoms: _445  and  _446
REMARK  181  A    between atoms: _445  and  _448
REMARK  182  A    between atoms: _448  and  _449
REMARK  183  A    between atoms: _452  and  _454
REMARK  184  A    between atoms: _454  and  _455
REMARK  185  A    between atoms: _454  and  _457
REMARK  186  A    between atoms: _457  and  _458
REMARK  187  A    between atoms: _464  and  _466
REMARK  188  A    between atoms: _466  and  _467
REMARK  189  A    between atoms: _466  and  _469
REMARK  190  A    between atoms: _469  and  _470
REMARK  191  A    between atoms: _470  and  _471
REMARK  192  A    between atoms: _476  and  _478
REMARK  193  A    between atoms: _478  and  _479
REMARK  194  A    between atoms: _478  and  _481
REMARK  195  A    between atoms: _481  and  _482
REMARK  196  A    between atoms: _482  and  _483
REMARK  197  A    between atoms: _488  and  _490
REMARK  198  A    between atoms: _490  and  _491
REMARK  199  A    between atoms: _490  and  _493
REMARK  200  A    between atoms: _493  and  _494
REMARK  201  A    between atoms: _494  and  _495
REMARK  202  A    between atoms: _497  and  _499
REMARK  203  A    between atoms: _499  and  _500
REMARK  204  A    between atoms: _499  and  _502
REMARK  205  A    between atoms: _502  and  _503
REMARK                            x       y       z     vdW  Elec       q    Type
REMARK                         _______ _______ _______ _____ _____    ______ ____
ROOT
ATOM      1  O   HOH     1      16.175  -9.784  42.254  0.00  0.00    +0.000 OA
ENDROOT
TORSDOF 0
REMARK  Name = ../refined-set-2016/2fxu/2fxu_pocket.pdb
REMARK  205 active torsions:
REMARK  status: ('A' for Active; 'I' for Inactive)
REMARK    1  A    between atoms: _1  and  _3
REMARK    2  A    between atoms: _3  and  _4
REMARK    3  A    between atoms: _3  and  _6
REMARK    4  A    between atoms: _6  and  _7
REMARK    5  A    between atoms: _10  and  _12
REMARK    6  A    between atoms: _12  and  _13
REMARK    7  A    between atoms: _12  and  _15
REMARK    8  A    between atoms: _15  and  _16
REMARK    9  A    between atoms: _19  and  _21
REMARK   10  A    between atoms: _21  and  _22
REMARK   11  A    between atoms: _21  and  _24
REMARK   12  A    between atoms: _24  and  _25
REMARK   13  A    between atoms: _28  and  _30
REMARK   14  A    between atoms: _30  and  _31
REMARK   15  A    between atoms: _30  and  _33
REMARK   16  A    between atoms: _33  and  _34
REMARK   17  A    between atoms: _34  and  _35
REMARK   18  A    between atoms: _39  and  _40
REMARK   19  A    between atoms: _45  and  _47
REMARK   20  A    between atoms: _47  and  _48
REMARK   21  A    between atoms: _47  and  _50
REMARK   22  A    between atoms: _50  and  _51
REMARK   23  A    between atoms: _54  and  _56
REMARK   24  A    between atoms: _56  and  _57
REMARK   25  A    between atoms: _56  and  _59
REMARK   26  A    between atoms: _59  and  _60
REMARK   27  A    between atoms: _65  and  _67
REMARK   28  A    between atoms: _67  and  _68
REMARK   29  A    between atoms: _67  and  _70
REMARK   30  A    between atoms: _70  and  _71
REMARK   31  A    between atoms: _71  and  _72
REMARK   32  A    between atoms: _72  and  _73
REMARK   33  A    between atoms: _73  and  _74
REMARK   34  A    between atoms: _78  and  _80
REMARK   35  A    between atoms: _80  and  _81
REMARK   36  A    between atoms: _80  and  _83
REMARK   37  A    between atoms: _83  and  _84
REMARK   38  A    between atoms: _84  and  _85
REMARK   39  A    between atoms: _85  and  _86
REMARK   40  A    between atoms: _95  and  _97
REMARK   41  A    between atoms: _97  and  _98
REMARK   42  A    between atoms: _97  and  _100
REMARK   43  A    between atoms: _100  and  _101
REMARK   44  A    between atoms: _106  and  _107
REMARK   45  A    between atoms: _109  and  _111
REMARK   46  A    between atoms: _111  and  _112
REMARK   47  A    between atoms: _111  and  _114
REMARK   48  A    between atoms: _117  and  _119
REMARK   49  A    between atoms: _119  and  _120
REMARK   50  A    between atoms: _123  and  _125
REMARK   51  A    between atoms: _125  and  _126
REMARK   52  A    between atoms: _125  and  _128
REMARK   53  A    between atoms: _128  and  _129
REMARK   54  A    between atoms: _132  and  _134
REMARK   55  A    between atoms: _134  and  _135
REMARK   56  A    between atoms: _134  and  _137
REMARK   57  A    between atoms: _137  and  _138
REMARK   58  A    between atoms: _138  and  _139
REMARK   59  A    between atoms: _144  and  _146
REMARK   60  A    between atoms: _146  and  _147
REMARK   61  A    between atoms: _150  and  _152
REMARK   62  A    between atoms: _152  and  _153
REMARK   63  A    between atoms: _152  and  _155
REMARK   64  A    between atoms: _158  and  _160
REMARK   65  A    between atoms: _160  and  _161
REMARK   66  A    between atoms: _160  and  _163
REMARK   67  A    between atoms: _163  and  _164
REMARK   68  A    between atoms: _167  and  _169
REMARK   69  A    between atoms: _169  and  _170
REMARK   70  A    between atoms: _169  and  _172
REMARK   71  A    between atoms: _172  and  _173
REMARK   72  A    between atoms: _175  and  _177
REMARK   73  A    between atoms: _177  and  _178
REMARK   74  A    between atoms: _177  and  _180
REMARK   75  A    between atoms: _180  and  _181
REMARK   76  A    between atoms: _184  and  _186
REMARK   77  A    between atoms: _186  and  _187
REMARK   78  A    between atoms: _186  and  _189
REMARK   79  A    between atoms: _189  and  _190
REMARK   80  A    between atoms: _195  and  _196
REMARK   81  A    between atoms: _198  and  _200
REMARK   82  A    between atoms: _200  and  _201
REMARK   83  A    between atoms: _204  and  _206
REMARK   84  A    between atoms: _206  and  _207
REMARK   85  A    between atoms: _206  and  _209
REMARK   86  A    between atoms: _209  and  _210
REMARK   87  A    between atoms: _212  and  _214
REMARK   88  A    between atoms: _214  and  _215
REMARK   89  A    between atoms: _217  and  _219
REMARK   90  A    between atoms: _219  and  _220
REMARK   91  A    between atoms: _219  and  _222
REMARK   92  A    between atoms: _222  and  _223
REMARK   93  A    between atoms: _223  and  _224
REMARK   94  A    between atoms: _224  and  _225
REMARK   95  A    between atoms: _234  and  _236
REMARK   96  A    between atoms: _236  and  _237
REMARK   97  A    between atoms: _236  and  _239
REMARK   98  A    between atoms: _239  and  _240
REMARK   99  A    between atoms: _243  and  _245
REMARK  100  A    between atoms: _245  and  _246
REMARK  101  A    between atoms: _245  and  _248
REMARK  102  A    between atoms: _248  and  _249
REMARK  103  A    between atoms: _252  and  _254
REMARK  104  A    between atoms: _254  and  _255
REMARK  105  A    between atoms: _254  and  _257
REMARK  106  A    between atoms: _261  and  _262
REMARK  107  A    between atoms: _267  and  _269
REMARK  108  A    between atoms: _269  and  _270
REMARK  109  A    between atoms: _269  and  _272
REMARK  110  A    between atoms: _272  and  _273
REMARK  111  A    between atoms: _276  and  _278
REMARK  112  A    between atoms: _278  and  _279
REMARK  113  A    between atoms: _278  and  _281
REMARK  114  A    between atoms: _281  and  _282
REMARK  115  A    between atoms: _287  and  _288
REMARK  116  A    between atoms: _290  and  _292
REMARK  117  A    between atoms: _292  and  _293
REMARK  118  A    between atoms: _292  and  _295
REMARK  119  A    between atoms: _295  and  _296
REMARK  120  A    between atoms: _296  and  _297
REMARK  121  A    between atoms: _300  and  _302
REMARK  122  A    between atoms: _302  and  _303
REMARK  123  A    between atoms: _305  and  _307
REMARK  124  A    between atoms: _307  and  _308
REMARK  125  A    between atoms: _307  and  _310
REMARK  126  A    between atoms: _310  and  _311
REMARK  127  A    between atoms: _316  and  _317
REMARK  128  A    between atoms: _319  and  _321
REMARK  129  A    between atoms: _321  and  _322
REMARK  130  A    between atoms: _325  and  _327
REMARK  131  A    between atoms: _327  and  _328
REMARK  132  A    between atoms: _327  and  _330
REMARK  133  A    between atoms: _330  and  _331
REMARK  134  A    between atoms: _335  and  _336
REMARK  135  A    between atoms: _341  and  _343
REMARK  136  A    between atoms: _343  and  _344
REMARK  137  A    between atoms: _343  and  _346
REMARK  138  A    between atoms: _346  and  _347
REMARK  139  A    between atoms: _352  and  _354
REMARK  140  A    between atoms: _354  and  _355
REMARK  141  A    between atoms: _358  and  _360
REMARK  142  A    between atoms: _360  and  _361
REMARK  143  A    between atoms: _360  and  _363
REMARK  144  A    between atoms: _363  and  _364
REMARK  145  A    between atoms: _367  and  _369
REMARK  146  A    between atoms: _369  and  _370
REMARK  147  A    between atoms: _369  and  _372
REMARK  148  A    between atoms: _372  and  _373
REMARK  149  A    between atoms: _376  and  _378
REMARK  150  A    between atoms: _378  and  _379
REMARK  151  A    between atoms: _381  and  _383
REMARK  152  A    between atoms: _383  and  _384
REMARK  153  A    between atoms: _386  and  _388
REMARK  154  A    between atoms: _388  and  _389
REMARK  155  A    between atoms: _388  and  _391
REMARK  156  A    between atoms: _391  and  _392
REMARK  157  A    between atoms: _394  and  _396
REMARK  158  A    between atoms: _396  and  _397
REMARK  159  A    between atoms: _396  and  _399
REMARK  160  A    between atoms: _399  and  _400
REMARK  161  A    between atoms: _403  and  _405
REMARK  162  A    between atoms: _405  and  _406
REMARK  163  A    between atoms: _405  and  _408
REMARK  164  A    between atoms: _408  and  _409
REMARK  165  A    between atoms: _412  and  _414
REMARK  166  A    between atoms: _414  and  _415
REMARK  167  A    between atoms: _418  and  _420
REMARK  168  A    between atoms: _420  and  _421
REMARK  169  A    between atoms: _420  and  _423
REMARK  170  A    between atoms: _423  and  _424
REMARK  171  A    between atoms: _426  and  _428
REMARK  172  A    between atoms: _428  and  _429
REMARK  173  A    between atoms: _428  and  _431
REMARK  174  A    between atoms: _431  and  _432
REMARK  175  A    between atoms: _435  and  _437
REMARK  176  A    between atoms: _437  and  _438
REMARK  177  A    between atoms: _437  and  _440
REMARK  178  A    between atoms: _440  and  _441
REMARK  179  A    between atoms: _443  and  _445
REMARK  180  A    between atoms: _445  and  _446
REMARK  181  A    between atoms: _445  and  _448
REMARK  182  A    between atoms: _448  and  _449
REMARK  183  A    between atoms: _452  and  _454
REMARK  184  A    between atoms: _454  and  _455
REMARK  185  A    between atoms: _454  and  _457
REMARK  186  A    between atoms: _457  and  _458
REMARK  187  A    between atoms: _464  and  _466
REMARK  188  A    between atoms: _466  and  _467
REMARK  189  A    between atoms: _466  and  _469
REMARK  190  A    between atoms: _469  and  _470
REMARK  191  A    between atoms: _470  and  _471
REMARK  192  A    between atoms: _476  and  _478
REMARK  193  A    between atoms: _478  and  _479
REMARK  194  A    between atoms: _478  and  _481
REMARK  195  A    between atoms: _481  and  _482
REMARK  196  A    between atoms: _482  and  _483
REMARK  197  A    between atoms: _488  and  _490
REMARK  198  A    between atoms: _490  and  _491
REMARK  199  A    between atoms: _490  and  _493
REMARK  200  A    between atoms: _493  and  _494
REMARK  201  A    between atoms: _494  and  _495
REMARK  202  A    between atoms: _497  and  _499
REMARK  203  A    between atoms: _499  and  _500
REMARK  204  A    between atoms: _499  and  _502
REMARK  205  A    between atoms: _502  and  _503
REMARK                            x       y       z     vdW  Elec       q    Type
REMARK                         _______ _______ _______ _____ _____    ______ ____
ROOT
ATOM      1  O   HOH     1      23.056  -9.043  35.443  0.00  0.00    +0.000 OA
ENDROOT
TORSDOF 0
REMARK  Name = ../refined-set-2016/2fxu/2fxu_pocket.pdb
REMARK  205 active torsions:
REMARK  status: ('A' for Active; 'I' for Inactive)
REMARK    1  A    between atoms: _1  and  _3
REMARK    2  A    between atoms: _3  and  _4
REMARK    3  A    between atoms: _3  and  _6
REMARK    4  A    between atoms: _6  and  _7
REMARK    5  A    between atoms: _10  and  _12
REMARK    6  A    between atoms: _12  and  _13
REMARK    7  A    between atoms: _12  and  _15
REMARK    8  A    between atoms: _15  and  _16
REMARK    9  A    between atoms: _19  and  _21
REMARK   10  A    between atoms: _21  and  _22
REMARK   11  A    between atoms: _21  and  _24
REMARK   12  A    between atoms: _24  and  _25
REMARK   13  A    between atoms: _28  and  _30
REMARK   14  A    between atoms: _30  and  _31
REMARK   15  A    between atoms: _30  and  _33
REMARK   16  A    between atoms: _33  and  _34
REMARK   17  A    between atoms: _34  and  _35
REMARK   18  A    between atoms: _39  and  _40
REMARK   19  A    between atoms: _45  and  _47
REMARK   20  A    between atoms: _47  and  _48
REMARK   21  A    between atoms: _47  and  _50
REMARK   22  A    between atoms: _50  and  _51
REMARK   23  A    between atoms: _54  and  _56
REMARK   24  A    between atoms: _56  and  _57
REMARK   25  A    between atoms: _56  and  _59
REMARK   26  A    between atoms: _59  and  _60
REMARK   27  A    between atoms: _65  and  _67
REMARK   28  A    between atoms: _67  and  _68
REMARK   29  A    between atoms: _67  and  _70
REMARK   30  A    between atoms: _70  and  _71
REMARK   31  A    between atoms: _71  and  _72
REMARK   32  A    between atoms: _72  and  _73
REMARK   33  A    between atoms: _73  and  _74
REMARK   34  A    between atoms: _78  and  _80
REMARK   35  A    between atoms: _80  and  _81
REMARK   36  A    between atoms: _80  and  _83
REMARK   37  A    between atoms: _83  and  _84
REMARK   38  A    between atoms: _84  and  _85
REMARK   39  A    between atoms: _85  and  _86
REMARK   40  A    between atoms: _95  and  _97
REMARK   41  A    between atoms: _97  and  _98
REMARK   42  A    between atoms: _97  and  _100
REMARK   43  A    between atoms: _100  and  _101
REMARK   44  A    between atoms: _106  and  _107
REMARK   45  A    between atoms: _109  and  _111
REMARK   46  A    between atoms: _111  and  _112
REMARK   47  A    between atoms: _111  and  _114
REMARK   48  A    between atoms: _117  and  _119
REMARK   49  A    between atoms: _119  and  _120
REMARK   50  A    between atoms: _123  and  _125
REMARK   51  A    between atoms: _125  and  _126
REMARK   52  A    between atoms: _125  and  _128
REMARK   53  A    between atoms: _128  and  _129
REMARK   54  A    between atoms: _132  and  _134
REMARK   55  A    between atoms: _134  and  _135
REMARK   56  A    between atoms: _134  and  _137
REMARK   57  A    between atoms: _137  and  _138
REMARK   58  A    between atoms: _138  and  _139
REMARK   59  A    between atoms: _144  and  _146
REMARK   60  A    between atoms: _146  and  _147
REMARK   61  A    between atoms: _150  and  _152
REMARK   62  A    between atoms: _152  and  _153
REMARK   63  A    between atoms: _152  and  _155
REMARK   64  A    between atoms: _158  and  _160
REMARK   65  A    between atoms: _160  and  _161
REMARK   66  A    between atoms: _160  and  _163
REMARK   67  A    between atoms: _163  and  _164
REMARK   68  A    between atoms: _167  and  _169
REMARK   69  A    between atoms: _169  and  _170
REMARK   70  A    between atoms: _169  and  _172
REMARK   71  A    between atoms: _172  and  _173
REMARK   72  A    between atoms: _175  and  _177
REMARK   73  A    between atoms: _177  and  _178
REMARK   74  A    between atoms: _177  and  _180
REMARK   75  A    between atoms: _180  and  _181
REMARK   76  A    between atoms: _184  and  _186
REMARK   77  A    between atoms: _186  and  _187
REMARK   78  A    between atoms: _186  and  _189
REMARK   79  A    between atoms: _189  and  _190
REMARK   80  A    between atoms: _195  and  _196
REMARK   81  A    between atoms: _198  and  _200
REMARK   82  A    between atoms: _200  and  _201
REMARK   83  A    between atoms: _204  and  _206
REMARK   84  A    between atoms: _206  and  _207
REMARK   85  A    between atoms: _206  and  _209
REMARK   86  A    between atoms: _209  and  _210
REMARK   87  A    between atoms: _212  and  _214
REMARK   88  A    between atoms: _214  and  _215
REMARK   89  A    between atoms: _217  and  _219
REMARK   90  A    between atoms: _219  and  _220
REMARK   91  A    between atoms: _219  and  _222
REMARK   92  A    between atoms: _222  and  _223
REMARK   93  A    between atoms: _223  and  _224
REMARK   94  A    between atoms: _224  and  _225
REMARK   95  A    between atoms: _234  and  _236
REMARK   96  A    between atoms: _236  and  _237
REMARK   97  A    between atoms: _236  and  _239
REMARK   98  A    between atoms: _239  and  _240
REMARK   99  A    between atoms: _243  and  _245
REMARK  100  A    between atoms: _245  and  _246
REMARK  101  A    between atoms: _245  and  _248
REMARK  102  A    between atoms: _248  and  _249
REMARK  103  A    between atoms: _252  and  _254
REMARK  104  A    between atoms: _254  and  _255
REMARK  105  A    between atoms: _254  and  _257
REMARK  106  A    between atoms: _261  and  _262
REMARK  107  A    between atoms: _267  and  _269
REMARK  108  A    between atoms: _269  and  _270
REMARK  109  A    between atoms: _269  and  _272
REMARK  110  A    between atoms: _272  and  _273
REMARK  111  A    between atoms: _276  and  _278
REMARK  112  A    between atoms: _278  and  _279
REMARK  113  A    between atoms: _278  and  _281
REMARK  114  A    between atoms: _281  and  _282
REMARK  115  A    between atoms: _287  and  _288
REMARK  116  A    between atoms: _290  and  _292
REMARK  117  A    between atoms: _292  and  _293
REMARK  118  A    between atoms: _292  and  _295
REMARK  119  A    between atoms: _295  and  _296
REMARK  120  A    between atoms: _296  and  _297
REMARK  121  A    between atoms: _300  and  _302
REMARK  122  A    between atoms: _302  and  _303
REMARK  123  A    between atoms: _305  and  _307
REMARK  124  A    between atoms: _307  and  _308
REMARK  125  A    between atoms: _307  and  _310
REMARK  126  A    between atoms: _310  and  _311
REMARK  127  A    between atoms: _316  and  _317
REMARK  128  A    between atoms: _319  and  _321
REMARK  129  A    between atoms: _321  and  _322
REMARK  130  A    between atoms: _325  and  _327
REMARK  131  A    between atoms: _327  and  _328
REMARK  132  A    between atoms: _327  and  _330
REMARK  133  A    between atoms: _330  and  _331
REMARK  134  A    between atoms: _335  and  _336
REMARK  135  A    between atoms: _341  and  _343
REMARK  136  A    between atoms: _343  and  _344
REMARK  137  A    between atoms: _343  and  _346
REMARK  138  A    between atoms: _346  and  _347
REMARK  139  A    between atoms: _352  and  _354
REMARK  140  A    between atoms: _354  and  _355
REMARK  141  A    between atoms: _358  and  _360
REMARK  142  A    between atoms: _360  and  _361
REMARK  143  A    between atoms: _360  and  _363
REMARK  144  A    between atoms: _363  and  _364
REMARK  145  A    between atoms: _367  and  _369
REMARK  146  A    between atoms: _369  and  _370
REMARK  147  A    between atoms: _369  and  _372
REMARK  148  A    between atoms: _372  and  _373
REMARK  149  A    between atoms: _376  and  _378
REMARK  150  A    between atoms: _378  and  _379
REMARK  151  A    between atoms: _381  and  _383
REMARK  152  A    between atoms: _383  and  _384
REMARK  153  A    between atoms: _386  and  _388
REMARK  154  A    between atoms: _388  and  _389
REMARK  155  A    between atoms: _388  and  _391
REMARK  156  A    between atoms: _391  and  _392
REMARK  157  A    between atoms: _394  and  _396
REMARK  158  A    between atoms: _396  and  _397
REMARK  159  A    between atoms: _396  and  _399
REMARK  160  A    between atoms: _399  and  _400
REMARK  161  A    between atoms: _403  and  _405
REMARK  162  A    between atoms: _405  and  _406
REMARK  163  A    between atoms: _405  and  _408
REMARK  164  A    between atoms: _408  and  _409
REMARK  165  A    between atoms: _412  and  _414
REMARK  166  A    between atoms: _414  and  _415
REMARK  167  A    between atoms: _418  and  _420
REMARK  168  A    between atoms: _420  and  _421
REMARK  169  A    between atoms: _420  and  _423
REMARK  170  A    between atoms: _423  and  _424
REMARK  171  A    between atoms: _426  and  _428
REMARK  172  A    between atoms: _428  and  _429
REMARK  173  A    between atoms: _428  and  _431
REMARK  174  A    between atoms: _431  and  _432
REMARK  175  A    between atoms: _435  and  _437
REMARK  176  A    between atoms: _437  and  _438
REMARK  177  A    between atoms: _437  and  _440
REMARK  178  A    between atoms: _440  and  _441
REMARK  179  A    between atoms: _443  and  _445
REMARK  180  A    between atoms: _445  and  _446
REMARK  181  A    between atoms: _445  and  _448
REMARK  182  A    between atoms: _448  and  _449
REMARK  183  A    between atoms: _452  and  _454
REMARK  184  A    between atoms: _454  and  _455
REMARK  185  A    between atoms: _454  and  _457
REMARK  186  A    between atoms: _457  and  _458
REMARK  187  A    between atoms: _464  and  _466
REMARK  188  A    between atoms: _466  and  _467
REMARK  189  A    between atoms: _466  and  _469
REMARK  190  A    between atoms: _469  and  _470
REMARK  191  A    between atoms: _470  and  _471
REMARK  192  A    between atoms: _476  and  _478
REMARK  193  A    between atoms: _478  and  _479
REMARK  194  A    between atoms: _478  and  _481
REMARK  195  A    between atoms: _481  and  _482
REMARK  196  A    between atoms: _482  and  _483
REMARK  197  A    between atoms: _488  and  _490
REMARK  198  A    between atoms: _490  and  _491
REMARK  199  A    between atoms: _490  and  _493
REMARK  200  A    between atoms: _493  and  _494
REMARK  201  A    between atoms: _494  and  _495
REMARK  202  A    between atoms: _497  and  _499
REMARK  203  A    between atoms: _499  and  _500
REMARK  204  A    between atoms: _499  and  _502
REMARK  205  A    between atoms: _502  and  _503
REMARK                            x       y       z     vdW  Elec       q    Type
REMARK                         _______ _______ _______ _____ _____    ______ ____
ROOT
ATOM      1  O   HOH     1      13.622 -13.336  45.025  0.00  0.00    +0.000 OA
ENDROOT
TORSDOF 0
REMARK  Name = ../refined-set-2016/2fxu/2fxu_pocket.pdb
REMARK  205 active torsions:
REMARK  status: ('A' for Active; 'I' for Inactive)
REMARK    1  A    between atoms: _1  and  _3
REMARK    2  A    between atoms: _3  and  _4
REMARK    3  A    between atoms: _3  and  _6
REMARK    4  A    between atoms: _6  and  _7
REMARK    5  A    between atoms: _10  and  _12
REMARK    6  A    between atoms: _12  and  _13
REMARK    7  A    between atoms: _12  and  _15
REMARK    8  A    between atoms: _15  and  _16
REMARK    9  A    between atoms: _19  and  _21
REMARK   10  A    between atoms: _21  and  _22
REMARK   11  A    between atoms: _21  and  _24
REMARK   12  A    between atoms: _24  and  _25
REMARK   13  A    between atoms: _28  and  _30
REMARK   14  A    between atoms: _30  and  _31
REMARK   15  A    between atoms: _30  and  _33
REMARK   16  A    between atoms: _33  and  _34
REMARK   17  A    between atoms: _34  and  _35
REMARK   18  A    between atoms: _39  and  _40
REMARK   19  A    between atoms: _45  and  _47
REMARK   20  A    between atoms: _47  and  _48
REMARK   21  A    between atoms: _47  and  _50
REMARK   22  A    between atoms: _50  and  _51
REMARK   23  A    between atoms: _54  and  _56
REMARK   24  A    between atoms: _56  and  _57
REMARK   25  A    between atoms: _56  and  _59
REMARK   26  A    between atoms: _59  and  _60
REMARK   27  A    between atoms: _65  and  _67
REMARK   28  A    between atoms: _67  and  _68
REMARK   29  A    between atoms: _67  and  _70
REMARK   30  A    between atoms: _70  and  _71
REMARK   31  A    between atoms: _71  and  _72
REMARK   32  A    between atoms: _72  and  _73
REMARK   33  A    between atoms: _73  and  _74
REMARK   34  A    between atoms: _78  and  _80
REMARK   35  A    between atoms: _80  and  _81
REMARK   36  A    between atoms: _80  and  _83
REMARK   37  A    between atoms: _83  and  _84
REMARK   38  A    between atoms: _84  and  _85
REMARK   39  A    between atoms: _85  and  _86
REMARK   40  A    between atoms: _95  and  _97
REMARK   41  A    between atoms: _97  and  _98
REMARK   42  A    between atoms: _97  and  _100
REMARK   43  A    between atoms: _100  and  _101
REMARK   44  A    between atoms: _106  and  _107
REMARK   45  A    between atoms: _109  and  _111
REMARK   46  A    between atoms: _111  and  _112
REMARK   47  A    between atoms: _111  and  _114
REMARK   48  A    between atoms: _117  and  _119
REMARK   49  A    between atoms: _119  and  _120
REMARK   50  A    between atoms: _123  and  _125
REMARK   51  A    between atoms: _125  and  _126
REMARK   52  A    between atoms: _125  and  _128
REMARK   53  A    between atoms: _128  and  _129
REMARK   54  A    between atoms: _132  and  _134
REMARK   55  A    between atoms: _134  and  _135
REMARK   56  A    between atoms: _134  and  _137
REMARK   57  A    between atoms: _137  and  _138
REMARK   58  A    between atoms: _138  and  _139
REMARK   59  A    between atoms: _144  and  _146
REMARK   60  A    between atoms: _146  and  _147
REMARK   61  A    between atoms: _150  and  _152
REMARK   62  A    between atoms: _152  and  _153
REMARK   63  A    between atoms: _152  and  _155
REMARK   64  A    between atoms: _158  and  _160
REMARK   65  A    between atoms: _160  and  _161
REMARK   66  A    between atoms: _160  and  _163
REMARK   67  A    between atoms: _163  and  _164
REMARK   68  A    between atoms: _167  and  _169
REMARK   69  A    between atoms: _169  and  _170
REMARK   70  A    between atoms: _169  and  _172
REMARK   71  A    between atoms: _172  and  _173
REMARK   72  A    between atoms: _175  and  _177
REMARK   73  A    between atoms: _177  and  _178
REMARK   74  A    between atoms: _177  and  _180
REMARK   75  A    between atoms: _180  and  _181
REMARK   76  A    between atoms: _184  and  _186
REMARK   77  A    between atoms: _186  and  _187
REMARK   78  A    between atoms: _186  and  _189
REMARK   79  A    between atoms: _189  and  _190
REMARK   80  A    between atoms: _195  and  _196
REMARK   81  A    between atoms: _198  and  _200
REMARK   82  A    between atoms: _200  and  _201
REMARK   83  A    between atoms: _204  and  _206
REMARK   84  A    between atoms: _206  and  _207
REMARK   85  A    between atoms: _206  and  _209
REMARK   86  A    between atoms: _209  and  _210
REMARK   87  A    between atoms: _212  and  _214
REMARK   88  A    between atoms: _214  and  _215
REMARK   89  A    between atoms: _217  and  _219
REMARK   90  A    between atoms: _219  and  _220
REMARK   91  A    between atoms: _219  and  _222
REMARK   92  A    between atoms: _222  and  _223
REMARK   93  A    between atoms: _223  and  _224
REMARK   94  A    between atoms: _224  and  _225
REMARK   95  A    between atoms: _234  and  _236
REMARK   96  A    between atoms: _236  and  _237
REMARK   97  A    between atoms: _236  and  _239
REMARK   98  A    between atoms: _239  and  _240
REMARK   99  A    between atoms: _243  and  _245
REMARK  100  A    between atoms: _245  and  _246
REMARK  101  A    between atoms: _245  and  _248
REMARK  102  A    between atoms: _248  and  _249
REMARK  103  A    between atoms: _252  and  _254
REMARK  104  A    between atoms: _254  and  _255
REMARK  105  A    between atoms: _254  and  _257
REMARK  106  A    between atoms: _261  and  _262
REMARK  107  A    between atoms: _267  and  _269
REMARK  108  A    between atoms: _269  and  _270
REMARK  109  A    between atoms: _269  and  _272
REMARK  110  A    between atoms: _272  and  _273
REMARK  111  A    between atoms: _276  and  _278
REMARK  112  A    between atoms: _278  and  _279
REMARK  113  A    between atoms: _278  and  _281
REMARK  114  A    between atoms: _281  and  _282
REMARK  115  A    between atoms: _287  and  _288
REMARK  116  A    between atoms: _290  and  _292
REMARK  117  A    between atoms: _292  and  _293
REMARK  118  A    between atoms: _292  and  _295
REMARK  119  A    between atoms: _295  and  _296
REMARK  120  A    between atoms: _296  and  _297
REMARK  121  A    between atoms: _300  and  _302
REMARK  122  A    between atoms: _302  and  _303
REMARK  123  A    between atoms: _305  and  _307
REMARK  124  A    between atoms: _307  and  _308
REMARK  125  A    between atoms: _307  and  _310
REMARK  126  A    between atoms: _310  and  _311
REMARK  127  A    between atoms: _316  and  _317
REMARK  128  A    between atoms: _319  and  _321
REMARK  129  A    between atoms: _321  and  _322
REMARK  130  A    between atoms: _325  and  _327
REMARK  131  A    between atoms: _327  and  _328
REMARK  132  A    between atoms: _327  and  _330
REMARK  133  A    between atoms: _330  and  _331
REMARK  134  A    between atoms: _335  and  _336
REMARK  135  A    between atoms: _341  and  _343
REMARK  136  A    between atoms: _343  and  _344
REMARK  137  A    between atoms: _343  and  _346
REMARK  138  A    between atoms: _346  and  _347
REMARK  139  A    between atoms: _352  and  _354
REMARK  140  A    between atoms: _354  and  _355
REMARK  141  A    between atoms: _358  and  _360
REMARK  142  A    between atoms: _360  and  _361
REMARK  143  A    between atoms: _360  and  _363
REMARK  144  A    between atoms: _363  and  _364
REMARK  145  A    between atoms: _367  and  _369
REMARK  146  A    between atoms: _369  and  _370
REMARK  147  A    between atoms: _369  and  _372
REMARK  148  A    between atoms: _372  and  _373
REMARK  149  A    between atoms: _376  and  _378
REMARK  150  A    between atoms: _378  and  _379
REMARK  151  A    between atoms: _381  and  _383
REMARK  152  A    between atoms: _383  and  _384
REMARK  153  A    between atoms: _386  and  _388
REMARK  154  A    between atoms: _388  and  _389
REMARK  155  A    between atoms: _388  and  _391
REMARK  156  A    between atoms: _391  and  _392
REMARK  157  A    between atoms: _394  and  _396
REMARK  158  A    between atoms: _396  and  _397
REMARK  159  A    between atoms: _396  and  _399
REMARK  160  A    between atoms: _399  and  _400
REMARK  161  A    between atoms: _403  and  _405
REMARK  162  A    between atoms: _405  and  _406
REMARK  163  A    between atoms: _405  and  _408
REMARK  164  A    between atoms: _408  and  _409
REMARK  165  A    between atoms: _412  and  _414
REMARK  166  A    between atoms: _414  and  _415
REMARK  167  A    between atoms: _418  and  _420
REMARK  168  A    between atoms: _420  and  _421
REMARK  169  A    between atoms: _420  and  _423
REMARK  170  A    between atoms: _423  and  _424
REMARK  171  A    between atoms: _426  and  _428
REMARK  172  A    between atoms: _428  and  _429
REMARK  173  A    between atoms: _428  and  _431
REMARK  174  A    between atoms: _431  and  _432
REMARK  175  A    between atoms: _435  and  _437
REMARK  176  A    between atoms: _437  and  _438
REMARK  177  A    between atoms: _437  and  _440
REMARK  178  A    between atoms: _440  and  _441
REMARK  179  A    between atoms: _443  and  _445
REMARK  180  A    between atoms: _445  and  _446
REMARK  181  A    between atoms: _445  and  _448
REMARK  182  A    between atoms: _448  and  _449
REMARK  183  A    between atoms: _452  and  _454
REMARK  184  A    between atoms: _454  and  _455
REMARK  185  A    between atoms: _454  and  _457
REMARK  186  A    between atoms: _457  and  _458
REMARK  187  A    between atoms: _464  and  _466
REMARK  188  A    between atoms: _466  and  _467
REMARK  189  A    between atoms: _466  and  _469
REMARK  190  A    between atoms: _469  and  _470
REMARK  191  A    between atoms: _470  and  _471
REMARK  192  A    between atoms: _476  and  _478
REMARK  193  A    between atoms: _478  and  _479
REMARK  194  A    between atoms: _478  and  _481
REMARK  195  A    between atoms: _481  and  _482
REMARK  196  A    between atoms: _482  and  _483
REMARK  197  A    between atoms: _488  and  _490
REMARK  198  A    between atoms: _490  and  _491
REMARK  199  A    between atoms: _490  and  _493
REMARK  200  A    between atoms: _493  and  _494
REMARK  201  A    between atoms: _494  and  _495
REMARK  202  A    between atoms: _497  and  _499
REMARK  203  A    between atoms: _499  and  _500
REMARK  204  A    between atoms: _499  and  _502
REMARK  205  A    between atoms: _502  and  _503
REMARK                            x       y       z     vdW  Elec       q    Type
REMARK                         _______ _______ _______ _____ _____    ______ ____
ROOT
ATOM      1  O   HOH     1      23.740  -8.980  39.267  0.00  0.00    +0.000 OA
ENDROOT
TORSDOF 0
REMARK  Name = ../refined-set-2016/2fxu/2fxu_pocket.pdb
REMARK  205 active torsions:
REMARK  status: ('A' for Active; 'I' for Inactive)
REMARK    1  A    between atoms: _1  and  _3
REMARK    2  A    between atoms: _3  and  _4
REMARK    3  A    between atoms: _3  and  _6
REMARK    4  A    between atoms: _6  and  _7
REMARK    5  A    between atoms: _10  and  _12
REMARK    6  A    between atoms: _12  and  _13
REMARK    7  A    between atoms: _12  and  _15
REMARK    8  A    between atoms: _15  and  _16
REMARK    9  A    between atoms: _19  and  _21
REMARK   10  A    between atoms: _21  and  _22
REMARK   11  A    between atoms: _21  and  _24
REMARK   12  A    between atoms: _24  and  _25
REMARK   13  A    between atoms: _28  and  _30
REMARK   14  A    between atoms: _30  and  _31
REMARK   15  A    between atoms: _30  and  _33
REMARK   16  A    between atoms: _33  and  _34
REMARK   17  A    between atoms: _34  and  _35
REMARK   18  A    between atoms: _39  and  _40
REMARK   19  A    between atoms: _45  and  _47
REMARK   20  A    between atoms: _47  and  _48
REMARK   21  A    between atoms: _47  and  _50
REMARK   22  A    between atoms: _50  and  _51
REMARK   23  A    between atoms: _54  and  _56
REMARK   24  A    between atoms: _56  and  _57
REMARK   25  A    between atoms: _56  and  _59
REMARK   26  A    between atoms: _59  and  _60
REMARK   27  A    between atoms: _65  and  _67
REMARK   28  A    between atoms: _67  and  _68
REMARK   29  A    between atoms: _67  and  _70
REMARK   30  A    between atoms: _70  and  _71
REMARK   31  A    between atoms: _71  and  _72
REMARK   32  A    between atoms: _72  and  _73
REMARK   33  A    between atoms: _73  and  _74
REMARK   34  A    between atoms: _78  and  _80
REMARK   35  A    between atoms: _80  and  _81
REMARK   36  A    between atoms: _80  and  _83
REMARK   37  A    between atoms: _83  and  _84
REMARK   38  A    between atoms: _84  and  _85
REMARK   39  A    between atoms: _85  and  _86
REMARK   40  A    between atoms: _95  and  _97
REMARK   41  A    between atoms: _97  and  _98
REMARK   42  A    between atoms: _97  and  _100
REMARK   43  A    between atoms: _100  and  _101
REMARK   44  A    between atoms: _106  and  _107
REMARK   45  A    between atoms: _109  and  _111
REMARK   46  A    between atoms: _111  and  _112
REMARK   47  A    between atoms: _111  and  _114
REMARK   48  A    between atoms: _117  and  _119
REMARK   49  A    between atoms: _119  and  _120
REMARK   50  A    between atoms: _123  and  _125
REMARK   51  A    between atoms: _125  and  _126
REMARK   52  A    between atoms: _125  and  _128
REMARK   53  A    between atoms: _128  and  _129
REMARK   54  A    between atoms: _132  and  _134
REMARK   55  A    between atoms: _134  and  _135
REMARK   56  A    between atoms: _134  and  _137
REMARK   57  A    between atoms: _137  and  _138
REMARK   58  A    between atoms: _138  and  _139
REMARK   59  A    between atoms: _144  and  _146
REMARK   60  A    between atoms: _146  and  _147
REMARK   61  A    between atoms: _150  and  _152
REMARK   62  A    between atoms: _152  and  _153
REMARK   63  A    between atoms: _152  and  _155
REMARK   64  A    between atoms: _158  and  _160
REMARK   65  A    between atoms: _160  and  _161
REMARK   66  A    between atoms: _160  and  _163
REMARK   67  A    between atoms: _163  and  _164
REMARK   68  A    between atoms: _167  and  _169
REMARK   69  A    between atoms: _169  and  _170
REMARK   70  A    between atoms: _169  and  _172
REMARK   71  A    between atoms: _172  and  _173
REMARK   72  A    between atoms: _175  and  _177
REMARK   73  A    between atoms: _177  and  _178
REMARK   74  A    between atoms: _177  and  _180
REMARK   75  A    between atoms: _180  and  _181
REMARK   76  A    between atoms: _184  and  _186
REMARK   77  A    between atoms: _186  and  _187
REMARK   78  A    between atoms: _186  and  _189
REMARK   79  A    between atoms: _189  and  _190
REMARK   80  A    between atoms: _195  and  _196
REMARK   81  A    between atoms: _198  and  _200
REMARK   82  A    between atoms: _200  and  _201
REMARK   83  A    between atoms: _204  and  _206
REMARK   84  A    between atoms: _206  and  _207
REMARK   85  A    between atoms: _206  and  _209
REMARK   86  A    between atoms: _209  and  _210
REMARK   87  A    between atoms: _212  and  _214
REMARK   88  A    between atoms: _214  and  _215
REMARK   89  A    between atoms: _217  and  _219
REMARK   90  A    between atoms: _219  and  _220
REMARK   91  A    between atoms: _219  and  _222
REMARK   92  A    between atoms: _222  and  _223
REMARK   93  A    between atoms: _223  and  _224
REMARK   94  A    between atoms: _224  and  _225
REMARK   95  A    between atoms: _234  and  _236
REMARK   96  A    between atoms: _236  and  _237
REMARK   97  A    between atoms: _236  and  _239
REMARK   98  A    between atoms: _239  and  _240
REMARK   99  A    between atoms: _243  and  _245
REMARK  100  A    between atoms: _245  and  _246
REMARK  101  A    between atoms: _245  and  _248
REMARK  102  A    between atoms: _248  and  _249
REMARK  103  A    between atoms: _252  and  _254
REMARK  104  A    between atoms: _254  and  _255
REMARK  105  A    between atoms: _254  and  _257
REMARK  106  A    between atoms: _261  and  _262
REMARK  107  A    between atoms: _267  and  _269
REMARK  108  A    between atoms: _269  and  _270
REMARK  109  A    between atoms: _269  and  _272
REMARK  110  A    between atoms: _272  and  _273
REMARK  111  A    between atoms: _276  and  _278
REMARK  112  A    between atoms: _278  and  _279
REMARK  113  A    between atoms: _278  and  _281
REMARK  114  A    between atoms: _281  and  _282
REMARK  115  A    between atoms: _287  and  _288
REMARK  116  A    between atoms: _290  and  _292
REMARK  117  A    between atoms: _292  and  _293
REMARK  118  A    between atoms: _292  and  _295
REMARK  119  A    between atoms: _295  and  _296
REMARK  120  A    between atoms: _296  and  _297
REMARK  121  A    between atoms: _300  and  _302
REMARK  122  A    between atoms: _302  and  _303
REMARK  123  A    between atoms: _305  and  _307
REMARK  124  A    between atoms: _307  and  _308
REMARK  125  A    between atoms: _307  and  _310
REMARK  126  A    between atoms: _310  and  _311
REMARK  127  A    between atoms: _316  and  _317
REMARK  128  A    between atoms: _319  and  _321
REMARK  129  A    between atoms: _321  and  _322
REMARK  130  A    between atoms: _325  and  _327
REMARK  131  A    between atoms: _327  and  _328
REMARK  132  A    between atoms: _327  and  _330
REMARK  133  A    between atoms: _330  and  _331
REMARK  134  A    between atoms: _335  and  _336
REMARK  135  A    between atoms: _341  and  _343
REMARK  136  A    between atoms: _343  and  _344
REMARK  137  A    between atoms: _343  and  _346
REMARK  138  A    between atoms: _346  and  _347
REMARK  139  A    between atoms: _352  and  _354
REMARK  140  A    between atoms: _354  and  _355
REMARK  141  A    between atoms: _358  and  _360
REMARK  142  A    between atoms: _360  and  _361
REMARK  143  A    between atoms: _360  and  _363
REMARK  144  A    between atoms: _363  and  _364
REMARK  145  A    between atoms: _367  and  _369
REMARK  146  A    between atoms: _369  and  _370
REMARK  147  A    between atoms: _369  and  _372
REMARK  148  A    between atoms: _372  and  _373
REMARK  149  A    between atoms: _376  and  _378
REMARK  150  A    between atoms: _378  and  _379
REMARK  151  A    between atoms: _381  and  _383
REMARK  152  A    between atoms: _383  and  _384
REMARK  153  A    between atoms: _386  and  _388
REMARK  154  A    between atoms: _388  and  _389
REMARK  155  A    between atoms: _388  and  _391
REMARK  156  A    between atoms: _391  and  _392
REMARK  157  A    between atoms: _394  and  _396
REMARK  158  A    between atoms: _396  and  _397
REMARK  159  A    between atoms: _396  and  _399
REMARK  160  A    between atoms: _399  and  _400
REMARK  161  A    between atoms: _403  and  _405
REMARK  162  A    between atoms: _405  and  _406
REMARK  163  A    between atoms: _405  and  _408
REMARK  164  A    between atoms: _408  and  _409
REMARK  165  A    between atoms: _412  and  _414
REMARK  166  A    between atoms: _414  and  _415
REMARK  167  A    between atoms: _418  and  _420
REMARK  168  A    between atoms: _420  and  _421
REMARK  169  A    between atoms: _420  and  _423
REMARK  170  A    between atoms: _423  and  _424
REMARK  171  A    between atoms: _426  and  _428
REMARK  172  A    between atoms: _428  and  _429
REMARK  173  A    between atoms: _428  and  _431
REMARK  174  A    between atoms: _431  and  _432
REMARK  175  A    between atoms: _435  and  _437
REMARK  176  A    between atoms: _437  and  _438
REMARK  177  A    between atoms: _437  and  _440
REMARK  178  A    between atoms: _440  and  _441
REMARK  179  A    between atoms: _443  and  _445
REMARK  180  A    between atoms: _445  and  _446
REMARK  181  A    between atoms: _445  and  _448
REMARK  182  A    between atoms: _448  and  _449
REMARK  183  A    between atoms: _452  and  _454
REMARK  184  A    between atoms: _454  and  _455
REMARK  185  A    between atoms: _454  and  _457
REMARK  186  A    between atoms: _457  and  _458
REMARK  187  A    between atoms: _464  and  _466
REMARK  188  A    between atoms: _466  and  _467
REMARK  189  A    between atoms: _466  and  _469
REMARK  190  A    between atoms: _469  and  _470
REMARK  191  A    between atoms: _470  and  _471
REMARK  192  A    between atoms: _476  and  _478
REMARK  193  A    between atoms: _478  and  _479
REMARK  194  A    between atoms: _478  and  _481
REMARK  195  A    between atoms: _481  and  _482
REMARK  196  A    between atoms: _482  and  _483
REMARK  197  A    between atoms: _488  and  _490
REMARK  198  A    between atoms: _490  and  _491
REMARK  199  A    between atoms: _490  and  _493
REMARK  200  A    between atoms: _493  and  _494
REMARK  201  A    between atoms: _494  and  _495
REMARK  202  A    between atoms: _497  and  _499
REMARK  203  A    between atoms: _499  and  _500
REMARK  204  A    between atoms: _499  and  _502
REMARK  205  A    between atoms: _502  and  _503
REMARK                            x       y       z     vdW  Elec       q    Type
REMARK                         _______ _______ _______ _____ _____    ______ ____
ROOT
ATOM      1  O   HOH     1      19.771 -13.052  38.221  0.00  0.00    +0.000 OA
ENDROOT
TORSDOF 0
REMARK  Name = ../refined-set-2016/2fxu/2fxu_pocket.pdb
REMARK  205 active torsions:
REMARK  status: ('A' for Active; 'I' for Inactive)
REMARK    1  A    between atoms: _1  and  _3
REMARK    2  A    between atoms: _3  and  _4
REMARK    3  A    between atoms: _3  and  _6
REMARK    4  A    between atoms: _6  and  _7
REMARK    5  A    between atoms: _10  and  _12
REMARK    6  A    between atoms: _12  and  _13
REMARK    7  A    between atoms: _12  and  _15
REMARK    8  A    between atoms: _15  and  _16
REMARK    9  A    between atoms: _19  and  _21
REMARK   10  A    between atoms: _21  and  _22
REMARK   11  A    between atoms: _21  and  _24
REMARK   12  A    between atoms: _24  and  _25
REMARK   13  A    between atoms: _28  and  _30
REMARK   14  A    between atoms: _30  and  _31
REMARK   15  A    between atoms: _30  and  _33
REMARK   16  A    between atoms: _33  and  _34
REMARK   17  A    between atoms: _34  and  _35
REMARK   18  A    between atoms: _39  and  _40
REMARK   19  A    between atoms: _45  and  _47
REMARK   20  A    between atoms: _47  and  _48
REMARK   21  A    between atoms: _47  and  _50
REMARK   22  A    between atoms: _50  and  _51
REMARK   23  A    between atoms: _54  and  _56
REMARK   24  A    between atoms: _56  and  _57
REMARK   25  A    between atoms: _56  and  _59
REMARK   26  A    between atoms: _59  and  _60
REMARK   27  A    between atoms: _65  and  _67
REMARK   28  A    between atoms: _67  and  _68
REMARK   29  A    between atoms: _67  and  _70
REMARK   30  A    between atoms: _70  and  _71
REMARK   31  A    between atoms: _71  and  _72
REMARK   32  A    between atoms: _72  and  _73
REMARK   33  A    between atoms: _73  and  _74
REMARK   34  A    between atoms: _78  and  _80
REMARK   35  A    between atoms: _80  and  _81
REMARK   36  A    between atoms: _80  and  _83
REMARK   37  A    between atoms: _83  and  _84
REMARK   38  A    between atoms: _84  and  _85
REMARK   39  A    between atoms: _85  and  _86
REMARK   40  A    between atoms: _95  and  _97
REMARK   41  A    between atoms: _97  and  _98
REMARK   42  A    between atoms: _97  and  _100
REMARK   43  A    between atoms: _100  and  _101
REMARK   44  A    between atoms: _106  and  _107
REMARK   45  A    between atoms: _109  and  _111
REMARK   46  A    between atoms: _111  and  _112
REMARK   47  A    between atoms: _111  and  _114
REMARK   48  A    between atoms: _117  and  _119
REMARK   49  A    between atoms: _119  and  _120
REMARK   50  A    between atoms: _123  and  _125
REMARK   51  A    between atoms: _125  and  _126
REMARK   52  A    between atoms: _125  and  _128
REMARK   53  A    between atoms: _128  and  _129
REMARK   54  A    between atoms: _132  and  _134
REMARK   55  A    between atoms: _134  and  _135
REMARK   56  A    between atoms: _134  and  _137
REMARK   57  A    between atoms: _137  and  _138
REMARK   58  A    between atoms: _138  and  _139
REMARK   59  A    between atoms: _144  and  _146
REMARK   60  A    between atoms: _146  and  _147
REMARK   61  A    between atoms: _150  and  _152
REMARK   62  A    between atoms: _152  and  _153
REMARK   63  A    between atoms: _152  and  _155
REMARK   64  A    between atoms: _158  and  _160
REMARK   65  A    between atoms: _160  and  _161
REMARK   66  A    between atoms: _160  and  _163
REMARK   67  A    between atoms: _163  and  _164
REMARK   68  A    between atoms: _167  and  _169
REMARK   69  A    between atoms: _169  and  _170
REMARK   70  A    between atoms: _169  and  _172
REMARK   71  A    between atoms: _172  and  _173
REMARK   72  A    between atoms: _175  and  _177
REMARK   73  A    between atoms: _177  and  _178
REMARK   74  A    between atoms: _177  and  _180
REMARK   75  A    between atoms: _180  and  _181
REMARK   76  A    between atoms: _184  and  _186
REMARK   77  A    between atoms: _186  and  _187
REMARK   78  A    between atoms: _186  and  _189
REMARK   79  A    between atoms: _189  and  _190
REMARK   80  A    between atoms: _195  and  _196
REMARK   81  A    between atoms: _198  and  _200
REMARK   82  A    between atoms: _200  and  _201
REMARK   83  A    between atoms: _204  and  _206
REMARK   84  A    between atoms: _206  and  _207
REMARK   85  A    between atoms: _206  and  _209
REMARK   86  A    between atoms: _209  and  _210
REMARK   87  A    between atoms: _212  and  _214
REMARK   88  A    between atoms: _214  and  _215
REMARK   89  A    between atoms: _217  and  _219
REMARK   90  A    between atoms: _219  and  _220
REMARK   91  A    between atoms: _219  and  _222
REMARK   92  A    between atoms: _222  and  _223
REMARK   93  A    between atoms: _223  and  _224
REMARK   94  A    between atoms: _224  and  _225
REMARK   95  A    between atoms: _234  and  _236
REMARK   96  A    between atoms: _236  and  _237
REMARK   97  A    between atoms: _236  and  _239
REMARK   98  A    between atoms: _239  and  _240
REMARK   99  A    between atoms: _243  and  _245
REMARK  100  A    between atoms: _245  and  _246
REMARK  101  A    between atoms: _245  and  _248
REMARK  102  A    between atoms: _248  and  _249
REMARK  103  A    between atoms: _252  and  _254
REMARK  104  A    between atoms: _254  and  _255
REMARK  105  A    between atoms: _254  and  _257
REMARK  106  A    between atoms: _261  and  _262
REMARK  107  A    between atoms: _267  and  _269
REMARK  108  A    between atoms: _269  and  _270
REMARK  109  A    between atoms: _269  and  _272
REMARK  110  A    between atoms: _272  and  _273
REMARK  111  A    between atoms: _276  and  _278
REMARK  112  A    between atoms: _278  and  _279
REMARK  113  A    between atoms: _278  and  _281
REMARK  114  A    between atoms: _281  and  _282
REMARK  115  A    between atoms: _287  and  _288
REMARK  116  A    between atoms: _290  and  _292
REMARK  117  A    between atoms: _292  and  _293
REMARK  118  A    between atoms: _292  and  _295
REMARK  119  A    between atoms: _295  and  _296
REMARK  120  A    between atoms: _296  and  _297
REMARK  121  A    between atoms: _300  and  _302
REMARK  122  A    between atoms: _302  and  _303
REMARK  123  A    between atoms: _305  and  _307
REMARK  124  A    between atoms: _307  and  _308
REMARK  125  A    between atoms: _307  and  _310
REMARK  126  A    between atoms: _310  and  _311
REMARK  127  A    between atoms: _316  and  _317
REMARK  128  A    between atoms: _319  and  _321
REMARK  129  A    between atoms: _321  and  _322
REMARK  130  A    between atoms: _325  and  _327
REMARK  131  A    between atoms: _327  and  _328
REMARK  132  A    between atoms: _327  and  _330
REMARK  133  A    between atoms: _330  and  _331
REMARK  134  A    between atoms: _335  and  _336
REMARK  135  A    between atoms: _341  and  _343
REMARK  136  A    between atoms: _343  and  _344
REMARK  137  A    between atoms: _343  and  _346
REMARK  138  A    between atoms: _346  and  _347
REMARK  139  A    between atoms: _352  and  _354
REMARK  140  A    between atoms: _354  and  _355
REMARK  141  A    between atoms: _358  and  _360
REMARK  142  A    between atoms: _360  and  _361
REMARK  143  A    between atoms: _360  and  _363
REMARK  144  A    between atoms: _363  and  _364
REMARK  145  A    between atoms: _367  and  _369
REMARK  146  A    between atoms: _369  and  _370
REMARK  147  A    between atoms: _369  and  _372
REMARK  148  A    between atoms: _372  and  _373
REMARK  149  A    between atoms: _376  and  _378
REMARK  150  A    between atoms: _378  and  _379
REMARK  151  A    between atoms: _381  and  _383
REMARK  152  A    between atoms: _383  and  _384
REMARK  153  A    between atoms: _386  and  _388
REMARK  154  A    between atoms: _388  and  _389
REMARK  155  A    between atoms: _388  and  _391
REMARK  156  A    between atoms: _391  and  _392
REMARK  157  A    between atoms: _394  and  _396
REMARK  158  A    between atoms: _396  and  _397
REMARK  159  A    between atoms: _396  and  _399
REMARK  160  A    between atoms: _399  and  _400
REMARK  161  A    between atoms: _403  and  _405
REMARK  162  A    between atoms: _405  and  _406
REMARK  163  A    between atoms: _405  and  _408
REMARK  164  A    between atoms: _408  and  _409
REMARK  165  A    between atoms: _412  and  _414
REMARK  166  A    between atoms: _414  and  _415
REMARK  167  A    between atoms: _418  and  _420
REMARK  168  A    between atoms: _420  and  _421
REMARK  169  A    between atoms: _420  and  _423
REMARK  170  A    between atoms: _423  and  _424
REMARK  171  A    between atoms: _426  and  _428
REMARK  172  A    between atoms: _428  and  _429
REMARK  173  A    between atoms: _428  and  _431
REMARK  174  A    between atoms: _431  and  _432
REMARK  175  A    between atoms: _435  and  _437
REMARK  176  A    between atoms: _437  and  _438
REMARK  177  A    between atoms: _437  and  _440
REMARK  178  A    between atoms: _440  and  _441
REMARK  179  A    between atoms: _443  and  _445
REMARK  180  A    between atoms: _445  and  _446
REMARK  181  A    between atoms: _445  and  _448
REMARK  182  A    between atoms: _448  and  _449
REMARK  183  A    between atoms: _452  and  _454
REMARK  184  A    between atoms: _454  and  _455
REMARK  185  A    between atoms: _454  and  _457
REMARK  186  A    between atoms: _457  and  _458
REMARK  187  A    between atoms: _464  and  _466
REMARK  188  A    between atoms: _466  and  _467
REMARK  189  A    between atoms: _466  and  _469
REMARK  190  A    between atoms: _469  and  _470
REMARK  191  A    between atoms: _470  and  _471
REMARK  192  A    between atoms: _476  and  _478
REMARK  193  A    between atoms: _478  and  _479
REMARK  194  A    between atoms: _478  and  _481
REMARK  195  A    between atoms: _481  and  _482
REMARK  196  A    between atoms: _482  and  _483
REMARK  197  A    between atoms: _488  and  _490
REMARK  198  A    between atoms: _490  and  _491
REMARK  199  A    between atoms: _490  and  _493
REMARK  200  A    between atoms: _493  and  _494
REMARK  201  A    between atoms: _494  and  _495
REMARK  202  A    between atoms: _497  and  _499
REMARK  203  A    between atoms: _499  and  _500
REMARK  204  A    between atoms: _499  and  _502
REMARK  205  A    between atoms: _502  and  _503
REMARK                            x       y       z     vdW  Elec       q    Type
REMARK                         _______ _______ _______ _____ _____    ______ ____
ROOT
ATOM      1  O   HOH     1      23.987 -11.432  34.333  0.00  0.00    +0.000 OA
ENDROOT
TORSDOF 0
REMARK  Name = ../refined-set-2016/2fxu/2fxu_pocket.pdb
REMARK  205 active torsions:
REMARK  status: ('A' for Active; 'I' for Inactive)
REMARK    1  A    between atoms: _1  and  _3
REMARK    2  A    between atoms: _3  and  _4
REMARK    3  A    between atoms: _3  and  _6
REMARK    4  A    between atoms: _6  and  _7
REMARK    5  A    between atoms: _10  and  _12
REMARK    6  A    between atoms: _12  and  _13
REMARK    7  A    between atoms: _12  and  _15
REMARK    8  A    between atoms: _15  and  _16
REMARK    9  A    between atoms: _19  and  _21
REMARK   10  A    between atoms: _21  and  _22
REMARK   11  A    between atoms: _21  and  _24
REMARK   12  A    between atoms: _24  and  _25
REMARK   13  A    between atoms: _28  and  _30
REMARK   14  A    between atoms: _30  and  _31
REMARK   15  A    between atoms: _30  and  _33
REMARK   16  A    between atoms: _33  and  _34
REMARK   17  A    between atoms: _34  and  _35
REMARK   18  A    between atoms: _39  and  _40
REMARK   19  A    between atoms: _45  and  _47
REMARK   20  A    between atoms: _47  and  _48
REMARK   21  A    between atoms: _47  and  _50
REMARK   22  A    between atoms: _50  and  _51
REMARK   23  A    between atoms: _54  and  _56
REMARK   24  A    between atoms: _56  and  _57
REMARK   25  A    between atoms: _56  and  _59
REMARK   26  A    between atoms: _59  and  _60
REMARK   27  A    between atoms: _65  and  _67
REMARK   28  A    between atoms: _67  and  _68
REMARK   29  A    between atoms: _67  and  _70
REMARK   30  A    between atoms: _70  and  _71
REMARK   31  A    between atoms: _71  and  _72
REMARK   32  A    between atoms: _72  and  _73
REMARK   33  A    between atoms: _73  and  _74
REMARK   34  A    between atoms: _78  and  _80
REMARK   35  A    between atoms: _80  and  _81
REMARK   36  A    between atoms: _80  and  _83
REMARK   37  A    between atoms: _83  and  _84
REMARK   38  A    between atoms: _84  and  _85
REMARK   39  A    between atoms: _85  and  _86
REMARK   40  A    between atoms: _95  and  _97
REMARK   41  A    between atoms: _97  and  _98
REMARK   42  A    between atoms: _97  and  _100
REMARK   43  A    between atoms: _100  and  _101
REMARK   44  A    between atoms: _106  and  _107
REMARK   45  A    between atoms: _109  and  _111
REMARK   46  A    between atoms: _111  and  _112
REMARK   47  A    between atoms: _111  and  _114
REMARK   48  A    between atoms: _117  and  _119
REMARK   49  A    between atoms: _119  and  _120
REMARK   50  A    between atoms: _123  and  _125
REMARK   51  A    between atoms: _125  and  _126
REMARK   52  A    between atoms: _125  and  _128
REMARK   53  A    between atoms: _128  and  _129
REMARK   54  A    between atoms: _132  and  _134
REMARK   55  A    between atoms: _134  and  _135
REMARK   56  A    between atoms: _134  and  _137
REMARK   57  A    between atoms: _137  and  _138
REMARK   58  A    between atoms: _138  and  _139
REMARK   59  A    between atoms: _144  and  _146
REMARK   60  A    between atoms: _146  and  _147
REMARK   61  A    between atoms: _150  and  _152
REMARK   62  A    between atoms: _152  and  _153
REMARK   63  A    between atoms: _152  and  _155
REMARK   64  A    between atoms: _158  and  _160
REMARK   65  A    between atoms: _160  and  _161
REMARK   66  A    between atoms: _160  and  _163
REMARK   67  A    between atoms: _163  and  _164
REMARK   68  A    between atoms: _167  and  _169
REMARK   69  A    between atoms: _169  and  _170
REMARK   70  A    between atoms: _169  and  _172
REMARK   71  A    between atoms: _172  and  _173
REMARK   72  A    between atoms: _175  and  _177
REMARK   73  A    between atoms: _177  and  _178
REMARK   74  A    between atoms: _177  and  _180
REMARK   75  A    between atoms: _180  and  _181
REMARK   76  A    between atoms: _184  and  _186
REMARK   77  A    between atoms: _186  and  _187
REMARK   78  A    between atoms: _186  and  _189
REMARK   79  A    between atoms: _189  and  _190
REMARK   80  A    between atoms: _195  and  _196
REMARK   81  A    between atoms: _198  and  _200
REMARK   82  A    between atoms: _200  and  _201
REMARK   83  A    between atoms: _204  and  _206
REMARK   84  A    between atoms: _206  and  _207
REMARK   85  A    between atoms: _206  and  _209
REMARK   86  A    between atoms: _209  and  _210
REMARK   87  A    between atoms: _212  and  _214
REMARK   88  A    between atoms: _214  and  _215
REMARK   89  A    between atoms: _217  and  _219
REMARK   90  A    between atoms: _219  and  _220
REMARK   91  A    between atoms: _219  and  _222
REMARK   92  A    between atoms: _222  and  _223
REMARK   93  A    between atoms: _223  and  _224
REMARK   94  A    between atoms: _224  and  _225
REMARK   95  A    between atoms: _234  and  _236
REMARK   96  A    between atoms: _236  and  _237
REMARK   97  A    between atoms: _236  and  _239
REMARK   98  A    between atoms: _239  and  _240
REMARK   99  A    between atoms: _243  and  _245
REMARK  100  A    between atoms: _245  and  _246
REMARK  101  A    between atoms: _245  and  _248
REMARK  102  A    between atoms: _248  and  _249
REMARK  103  A    between atoms: _252  and  _254
REMARK  104  A    between atoms: _254  and  _255
REMARK  105  A    between atoms: _254  and  _257
REMARK  106  A    between atoms: _261  and  _262
REMARK  107  A    between atoms: _267  and  _269
REMARK  108  A    between atoms: _269  and  _270
REMARK  109  A    between atoms: _269  and  _272
REMARK  110  A    between atoms: _272  and  _273
REMARK  111  A    between atoms: _276  and  _278
REMARK  112  A    between atoms: _278  and  _279
REMARK  113  A    between atoms: _278  and  _281
REMARK  114  A    between atoms: _281  and  _282
REMARK  115  A    between atoms: _287  and  _288
REMARK  116  A    between atoms: _290  and  _292
REMARK  117  A    between atoms: _292  and  _293
REMARK  118  A    between atoms: _292  and  _295
REMARK  119  A    between atoms: _295  and  _296
REMARK  120  A    between atoms: _296  and  _297
REMARK  121  A    between atoms: _300  and  _302
REMARK  122  A    between atoms: _302  and  _303
REMARK  123  A    between atoms: _305  and  _307
REMARK  124  A    between atoms: _307  and  _308
REMARK  125  A    between atoms: _307  and  _310
REMARK  126  A    between atoms: _310  and  _311
REMARK  127  A    between atoms: _316  and  _317
REMARK  128  A    between atoms: _319  and  _321
REMARK  129  A    between atoms: _321  and  _322
REMARK  130  A    between atoms: _325  and  _327
REMARK  131  A    between atoms: _327  and  _328
REMARK  132  A    between atoms: _327  and  _330
REMARK  133  A    between atoms: _330  and  _331
REMARK  134  A    between atoms: _335  and  _336
REMARK  135  A    between atoms: _341  and  _343
REMARK  136  A    between atoms: _343  and  _344
REMARK  137  A    between atoms: _343  and  _346
REMARK  138  A    between atoms: _346  and  _347
REMARK  139  A    between atoms: _352  and  _354
REMARK  140  A    between atoms: _354  and  _355
REMARK  141  A    between atoms: _358  and  _360
REMARK  142  A    between atoms: _360  and  _361
REMARK  143  A    between atoms: _360  and  _363
REMARK  144  A    between atoms: _363  and  _364
REMARK  145  A    between atoms: _367  and  _369
REMARK  146  A    between atoms: _369  and  _370
REMARK  147  A    between atoms: _369  and  _372
REMARK  148  A    between atoms: _372  and  _373
REMARK  149  A    between atoms: _376  and  _378
REMARK  150  A    between atoms: _378  and  _379
REMARK  151  A    between atoms: _381  and  _383
REMARK  152  A    between atoms: _383  and  _384
REMARK  153  A    between atoms: _386  and  _388
REMARK  154  A    between atoms: _388  and  _389
REMARK  155  A    between atoms: _388  and  _391
REMARK  156  A    between atoms: _391  and  _392
REMARK  157  A    between atoms: _394  and  _396
REMARK  158  A    between atoms: _396  and  _397
REMARK  159  A    between atoms: _396  and  _399
REMARK  160  A    between atoms: _399  and  _400
REMARK  161  A    between atoms: _403  and  _405
REMARK  162  A    between atoms: _405  and  _406
REMARK  163  A    between atoms: _405  and  _408
REMARK  164  A    between atoms: _408  and  _409
REMARK  165  A    between atoms: _412  and  _414
REMARK  166  A    between atoms: _414  and  _415
REMARK  167  A    between atoms: _418  and  _420
REMARK  168  A    between atoms: _420  and  _421
REMARK  169  A    between atoms: _420  and  _423
REMARK  170  A    between atoms: _423  and  _424
REMARK  171  A    between atoms: _426  and  _428
REMARK  172  A    between atoms: _428  and  _429
REMARK  173  A    between atoms: _428  and  _431
REMARK  174  A    between atoms: _431  and  _432
REMARK  175  A    between atoms: _435  and  _437
REMARK  176  A    between atoms: _437  and  _438
REMARK  177  A    between atoms: _437  and  _440
REMARK  178  A    between atoms: _440  and  _441
REMARK  179  A    between atoms: _443  and  _445
REMARK  180  A    between atoms: _445  and  _446
REMARK  181  A    between atoms: _445  and  _448
REMARK  182  A    between atoms: _448  and  _449
REMARK  183  A    between atoms: _452  and  _454
REMARK  184  A    between atoms: _454  and  _455
REMARK  185  A    between atoms: _454  and  _457
REMARK  186  A    between atoms: _457  and  _458
REMARK  187  A    between atoms: _464  and  _466
REMARK  188  A    between atoms: _466  and  _467
REMARK  189  A    between atoms: _466  and  _469
REMARK  190  A    between atoms: _469  and  _470
REMARK  191  A    between atoms: _470  and  _471
REMARK  192  A    between atoms: _476  and  _478
REMARK  193  A    between atoms: _478  and  _479
REMARK  194  A    between atoms: _478  and  _481
REMARK  195  A    between atoms: _481  and  _482
REMARK  196  A    between atoms: _482  and  _483
REMARK  197  A    between atoms: _488  and  _490
REMARK  198  A    between atoms: _490  and  _491
REMARK  199  A    between atoms: _490  and  _493
REMARK  200  A    between atoms: _493  and  _494
REMARK  201  A    between atoms: _494  and  _495
REMARK  202  A    between atoms: _497  and  _499
REMARK  203  A    between atoms: _499  and  _500
REMARK  204  A    between atoms: _499  and  _502
REMARK  205  A    between atoms: _502  and  _503
REMARK                            x       y       z     vdW  Elec       q    Type
REMARK                         _______ _______ _______ _____ _____    ______ ____
ROOT
ATOM      1  O   HOH     1      27.133 -20.021  31.927  0.00  0.00    +0.000 OA
ENDROOT
TORSDOF 0
REMARK  Name = ../refined-set-2016/2fxu/2fxu_pocket.pdb
REMARK  205 active torsions:
REMARK  status: ('A' for Active; 'I' for Inactive)
REMARK    1  A    between atoms: _1  and  _3
REMARK    2  A    between atoms: _3  and  _4
REMARK    3  A    between atoms: _3  and  _6
REMARK    4  A    between atoms: _6  and  _7
REMARK    5  A    between atoms: _10  and  _12
REMARK    6  A    between atoms: _12  and  _13
REMARK    7  A    between atoms: _12  and  _15
REMARK    8  A    between atoms: _15  and  _16
REMARK    9  A    between atoms: _19  and  _21
REMARK   10  A    between atoms: _21  and  _22
REMARK   11  A    between atoms: _21  and  _24
REMARK   12  A    between atoms: _24  and  _25
REMARK   13  A    between atoms: _28  and  _30
REMARK   14  A    between atoms: _30  and  _31
REMARK   15  A    between atoms: _30  and  _33
REMARK   16  A    between atoms: _33  and  _34
REMARK   17  A    between atoms: _34  and  _35
REMARK   18  A    between atoms: _39  and  _40
REMARK   19  A    between atoms: _45  and  _47
REMARK   20  A    between atoms: _47  and  _48
REMARK   21  A    between atoms: _47  and  _50
REMARK   22  A    between atoms: _50  and  _51
REMARK   23  A    between atoms: _54  and  _56
REMARK   24  A    between atoms: _56  and  _57
REMARK   25  A    between atoms: _56  and  _59
REMARK   26  A    between atoms: _59  and  _60
REMARK   27  A    between atoms: _65  and  _67
REMARK   28  A    between atoms: _67  and  _68
REMARK   29  A    between atoms: _67  and  _70
REMARK   30  A    between atoms: _70  and  _71
REMARK   31  A    between atoms: _71  and  _72
REMARK   32  A    between atoms: _72  and  _73
REMARK   33  A    between atoms: _73  and  _74
REMARK   34  A    between atoms: _78  and  _80
REMARK   35  A    between atoms: _80  and  _81
REMARK   36  A    between atoms: _80  and  _83
REMARK   37  A    between atoms: _83  and  _84
REMARK   38  A    between atoms: _84  and  _85
REMARK   39  A    between atoms: _85  and  _86
REMARK   40  A    between atoms: _95  and  _97
REMARK   41  A    between atoms: _97  and  _98
REMARK   42  A    between atoms: _97  and  _100
REMARK   43  A    between atoms: _100  and  _101
REMARK   44  A    between atoms: _106  and  _107
REMARK   45  A    between atoms: _109  and  _111
REMARK   46  A    between atoms: _111  and  _112
REMARK   47  A    between atoms: _111  and  _114
REMARK   48  A    between atoms: _117  and  _119
REMARK   49  A    between atoms: _119  and  _120
REMARK   50  A    between atoms: _123  and  _125
REMARK   51  A    between atoms: _125  and  _126
REMARK   52  A    between atoms: _125  and  _128
REMARK   53  A    between atoms: _128  and  _129
REMARK   54  A    between atoms: _132  and  _134
REMARK   55  A    between atoms: _134  and  _135
REMARK   56  A    between atoms: _134  and  _137
REMARK   57  A    between atoms: _137  and  _138
REMARK   58  A    between atoms: _138  and  _139
REMARK   59  A    between atoms: _144  and  _146
REMARK   60  A    between atoms: _146  and  _147
REMARK   61  A    between atoms: _150  and  _152
REMARK   62  A    between atoms: _152  and  _153
REMARK   63  A    between atoms: _152  and  _155
REMARK   64  A    between atoms: _158  and  _160
REMARK   65  A    between atoms: _160  and  _161
REMARK   66  A    between atoms: _160  and  _163
REMARK   67  A    between atoms: _163  and  _164
REMARK   68  A    between atoms: _167  and  _169
REMARK   69  A    between atoms: _169  and  _170
REMARK   70  A    between atoms: _169  and  _172
REMARK   71  A    between atoms: _172  and  _173
REMARK   72  A    between atoms: _175  and  _177
REMARK   73  A    between atoms: _177  and  _178
REMARK   74  A    between atoms: _177  and  _180
REMARK   75  A    between atoms: _180  and  _181
REMARK   76  A    between atoms: _184  and  _186
REMARK   77  A    between atoms: _186  and  _187
REMARK   78  A    between atoms: _186  and  _189
REMARK   79  A    between atoms: _189  and  _190
REMARK   80  A    between atoms: _195  and  _196
REMARK   81  A    between atoms: _198  and  _200
REMARK   82  A    between atoms: _200  and  _201
REMARK   83  A    between atoms: _204  and  _206
REMARK   84  A    between atoms: _206  and  _207
REMARK   85  A    between atoms: _206  and  _209
REMARK   86  A    between atoms: _209  and  _210
REMARK   87  A    between atoms: _212  and  _214
REMARK   88  A    between atoms: _214  and  _215
REMARK   89  A    between atoms: _217  and  _219
REMARK   90  A    between atoms: _219  and  _220
REMARK   91  A    between atoms: _219  and  _222
REMARK   92  A    between atoms: _222  and  _223
REMARK   93  A    between atoms: _223  and  _224
REMARK   94  A    between atoms: _224  and  _225
REMARK   95  A    between atoms: _234  and  _236
REMARK   96  A    between atoms: _236  and  _237
REMARK   97  A    between atoms: _236  and  _239
REMARK   98  A    between atoms: _239  and  _240
REMARK   99  A    between atoms: _243  and  _245
REMARK  100  A    between atoms: _245  and  _246
REMARK  101  A    between atoms: _245  and  _248
REMARK  102  A    between atoms: _248  and  _249
REMARK  103  A    between atoms: _252  and  _254
REMARK  104  A    between atoms: _254  and  _255
REMARK  105  A    between atoms: _254  and  _257
REMARK  106  A    between atoms: _261  and  _262
REMARK  107  A    between atoms: _267  and  _269
REMARK  108  A    between atoms: _269  and  _270
REMARK  109  A    between atoms: _269  and  _272
REMARK  110  A    between atoms: _272  and  _273
REMARK  111  A    between atoms: _276  and  _278
REMARK  112  A    between atoms: _278  and  _279
REMARK  113  A    between atoms: _278  and  _281
REMARK  114  A    between atoms: _281  and  _282
REMARK  115  A    between atoms: _287  and  _288
REMARK  116  A    between atoms: _290  and  _292
REMARK  117  A    between atoms: _292  and  _293
REMARK  118  A    between atoms: _292  and  _295
REMARK  119  A    between atoms: _295  and  _296
REMARK  120  A    between atoms: _296  and  _297
REMARK  121  A    between atoms: _300  and  _302
REMARK  122  A    between atoms: _302  and  _303
REMARK  123  A    between atoms: _305  and  _307
REMARK  124  A    between atoms: _307  and  _308
REMARK  125  A    between atoms: _307  and  _310
REMARK  126  A    between atoms: _310  and  _311
REMARK  127  A    between atoms: _316  and  _317
REMARK  128  A    between atoms: _319  and  _321
REMARK  129  A    between atoms: _321  and  _322
REMARK  130  A    between atoms: _325  and  _327
REMARK  131  A    between atoms: _327  and  _328
REMARK  132  A    between atoms: _327  and  _330
REMARK  133  A    between atoms: _330  and  _331
REMARK  134  A    between atoms: _335  and  _336
REMARK  135  A    between atoms: _341  and  _343
REMARK  136  A    between atoms: _343  and  _344
REMARK  137  A    between atoms: _343  and  _346
REMARK  138  A    between atoms: _346  and  _347
REMARK  139  A    between atoms: _352  and  _354
REMARK  140  A    between atoms: _354  and  _355
REMARK  141  A    between atoms: _358  and  _360
REMARK  142  A    between atoms: _360  and  _361
REMARK  143  A    between atoms: _360  and  _363
REMARK  144  A    between atoms: _363  and  _364
REMARK  145  A    between atoms: _367  and  _369
REMARK  146  A    between atoms: _369  and  _370
REMARK  147  A    between atoms: _369  and  _372
REMARK  148  A    between atoms: _372  and  _373
REMARK  149  A    between atoms: _376  and  _378
REMARK  150  A    between atoms: _378  and  _379
REMARK  151  A    between atoms: _381  and  _383
REMARK  152  A    between atoms: _383  and  _384
REMARK  153  A    between atoms: _386  and  _388
REMARK  154  A    between atoms: _388  and  _389
REMARK  155  A    between atoms: _388  and  _391
REMARK  156  A    between atoms: _391  and  _392
REMARK  157  A    between atoms: _394  and  _396
REMARK  158  A    between atoms: _396  and  _397
REMARK  159  A    between atoms: _396  and  _399
REMARK  160  A    between atoms: _399  and  _400
REMARK  161  A    between atoms: _403  and  _405
REMARK  162  A    between atoms: _405  and  _406
REMARK  163  A    between atoms: _405  and  _408
REMARK  164  A    between atoms: _408  and  _409
REMARK  165  A    between atoms: _412  and  _414
REMARK  166  A    between atoms: _414  and  _415
REMARK  167  A    between atoms: _418  and  _420
REMARK  168  A    between atoms: _420  and  _421
REMARK  169  A    between atoms: _420  and  _423
REMARK  170  A    between atoms: _423  and  _424
REMARK  171  A    between atoms: _426  and  _428
REMARK  172  A    between atoms: _428  and  _429
REMARK  173  A    between atoms: _428  and  _431
REMARK  174  A    between atoms: _431  and  _432
REMARK  175  A    between atoms: _435  and  _437
REMARK  176  A    between atoms: _437  and  _438
REMARK  177  A    between atoms: _437  and  _440
REMARK  178  A    between atoms: _440  and  _441
REMARK  179  A    between atoms: _443  and  _445
REMARK  180  A    between atoms: _445  and  _446
REMARK  181  A    between atoms: _445  and  _448
REMARK  182  A    between atoms: _448  and  _449
REMARK  183  A    between atoms: _452  and  _454
REMARK  184  A    between atoms: _454  and  _455
REMARK  185  A    between atoms: _454  and  _457
REMARK  186  A    between atoms: _457  and  _458
REMARK  187  A    between atoms: _464  and  _466
REMARK  188  A    between atoms: _466  and  _467
REMARK  189  A    between atoms: _466  and  _469
REMARK  190  A    between atoms: _469  and  _470
REMARK  191  A    between atoms: _470  and  _471
REMARK  192  A    between atoms: _476  and  _478
REMARK  193  A    between atoms: _478  and  _479
REMARK  194  A    between atoms: _478  and  _481
REMARK  195  A    between atoms: _481  and  _482
REMARK  196  A    between atoms: _482  and  _483
REMARK  197  A    between atoms: _488  and  _490
REMARK  198  A    between atoms: _490  and  _491
REMARK  199  A    between atoms: _490  and  _493
REMARK  200  A    between atoms: _493  and  _494
REMARK  201  A    between atoms: _494  and  _495
REMARK  202  A    between atoms: _497  and  _499
REMARK  203  A    between atoms: _499  and  _500
REMARK  204  A    between atoms: _499  and  _502
REMARK  205  A    between atoms: _502  and  _503
REMARK                            x       y       z     vdW  Elec       q    Type
REMARK                         _______ _______ _______ _____ _____    ______ ____
ROOT
ATOM      1  O   HOH     1       6.514 -17.731  21.556  0.00  0.00    +0.000 OA
ENDROOT
TORSDOF 0
REMARK  Name = ../refined-set-2016/2fxu/2fxu_pocket.pdb
REMARK  205 active torsions:
REMARK  status: ('A' for Active; 'I' for Inactive)
REMARK    1  A    between atoms: _1  and  _3
REMARK    2  A    between atoms: _3  and  _4
REMARK    3  A    between atoms: _3  and  _6
REMARK    4  A    between atoms: _6  and  _7
REMARK    5  A    between atoms: _10  and  _12
REMARK    6  A    between atoms: _12  and  _13
REMARK    7  A    between atoms: _12  and  _15
REMARK    8  A    between atoms: _15  and  _16
REMARK    9  A    between atoms: _19  and  _21
REMARK   10  A    between atoms: _21  and  _22
REMARK   11  A    between atoms: _21  and  _24
REMARK   12  A    between atoms: _24  and  _25
REMARK   13  A    between atoms: _28  and  _30
REMARK   14  A    between atoms: _30  and  _31
REMARK   15  A    between atoms: _30  and  _33
REMARK   16  A    between atoms: _33  and  _34
REMARK   17  A    between atoms: _34  and  _35
REMARK   18  A    between atoms: _39  and  _40
REMARK   19  A    between atoms: _45  and  _47
REMARK   20  A    between atoms: _47  and  _48
REMARK   21  A    between atoms: _47  and  _50
REMARK   22  A    between atoms: _50  and  _51
REMARK   23  A    between atoms: _54  and  _56
REMARK   24  A    between atoms: _56  and  _57
REMARK   25  A    between atoms: _56  and  _59
REMARK   26  A    between atoms: _59  and  _60
REMARK   27  A    between atoms: _65  and  _67
REMARK   28  A    between atoms: _67  and  _68
REMARK   29  A    between atoms: _67  and  _70
REMARK   30  A    between atoms: _70  and  _71
REMARK   31  A    between atoms: _71  and  _72
REMARK   32  A    between atoms: _72  and  _73
REMARK   33  A    between atoms: _73  and  _74
REMARK   34  A    between atoms: _78  and  _80
REMARK   35  A    between atoms: _80  and  _81
REMARK   36  A    between atoms: _80  and  _83
REMARK   37  A    between atoms: _83  and  _84
REMARK   38  A    between atoms: _84  and  _85
REMARK   39  A    between atoms: _85  and  _86
REMARK   40  A    between atoms: _95  and  _97
REMARK   41  A    between atoms: _97  and  _98
REMARK   42  A    between atoms: _97  and  _100
REMARK   43  A    between atoms: _100  and  _101
REMARK   44  A    between atoms: _106  and  _107
REMARK   45  A    between atoms: _109  and  _111
REMARK   46  A    between atoms: _111  and  _112
REMARK   47  A    between atoms: _111  and  _114
REMARK   48  A    between atoms: _117  and  _119
REMARK   49  A    between atoms: _119  and  _120
REMARK   50  A    between atoms: _123  and  _125
REMARK   51  A    between atoms: _125  and  _126
REMARK   52  A    between atoms: _125  and  _128
REMARK   53  A    between atoms: _128  and  _129
REMARK   54  A    between atoms: _132  and  _134
REMARK   55  A    between atoms: _134  and  _135
REMARK   56  A    between atoms: _134  and  _137
REMARK   57  A    between atoms: _137  and  _138
REMARK   58  A    between atoms: _138  and  _139
REMARK   59  A    between atoms: _144  and  _146
REMARK   60  A    between atoms: _146  and  _147
REMARK   61  A    between atoms: _150  and  _152
REMARK   62  A    between atoms: _152  and  _153
REMARK   63  A    between atoms: _152  and  _155
REMARK   64  A    between atoms: _158  and  _160
REMARK   65  A    between atoms: _160  and  _161
REMARK   66  A    between atoms: _160  and  _163
REMARK   67  A    between atoms: _163  and  _164
REMARK   68  A    between atoms: _167  and  _169
REMARK   69  A    between atoms: _169  and  _170
REMARK   70  A    between atoms: _169  and  _172
REMARK   71  A    between atoms: _172  and  _173
REMARK   72  A    between atoms: _175  and  _177
REMARK   73  A    between atoms: _177  and  _178
REMARK   74  A    between atoms: _177  and  _180
REMARK   75  A    between atoms: _180  and  _181
REMARK   76  A    between atoms: _184  and  _186
REMARK   77  A    between atoms: _186  and  _187
REMARK   78  A    between atoms: _186  and  _189
REMARK   79  A    between atoms: _189  and  _190
REMARK   80  A    between atoms: _195  and  _196
REMARK   81  A    between atoms: _198  and  _200
REMARK   82  A    between atoms: _200  and  _201
REMARK   83  A    between atoms: _204  and  _206
REMARK   84  A    between atoms: _206  and  _207
REMARK   85  A    between atoms: _206  and  _209
REMARK   86  A    between atoms: _209  and  _210
REMARK   87  A    between atoms: _212  and  _214
REMARK   88  A    between atoms: _214  and  _215
REMARK   89  A    between atoms: _217  and  _219
REMARK   90  A    between atoms: _219  and  _220
REMARK   91  A    between atoms: _219  and  _222
REMARK   92  A    between atoms: _222  and  _223
REMARK   93  A    between atoms: _223  and  _224
REMARK   94  A    between atoms: _224  and  _225
REMARK   95  A    between atoms: _234  and  _236
REMARK   96  A    between atoms: _236  and  _237
REMARK   97  A    between atoms: _236  and  _239
REMARK   98  A    between atoms: _239  and  _240
REMARK   99  A    between atoms: _243  and  _245
REMARK  100  A    between atoms: _245  and  _246
REMARK  101  A    between atoms: _245  and  _248
REMARK  102  A    between atoms: _248  and  _249
REMARK  103  A    between atoms: _252  and  _254
REMARK  104  A    between atoms: _254  and  _255
REMARK  105  A    between atoms: _254  and  _257
REMARK  106  A    between atoms: _261  and  _262
REMARK  107  A    between atoms: _267  and  _269
REMARK  108  A    between atoms: _269  and  _270
REMARK  109  A    between atoms: _269  and  _272
REMARK  110  A    between atoms: _272  and  _273
REMARK  111  A    between atoms: _276  and  _278
REMARK  112  A    between atoms: _278  and  _279
REMARK  113  A    between atoms: _278  and  _281
REMARK  114  A    between atoms: _281  and  _282
REMARK  115  A    between atoms: _287  and  _288
REMARK  116  A    between atoms: _290  and  _292
REMARK  117  A    between atoms: _292  and  _293
REMARK  118  A    between atoms: _292  and  _295
REMARK  119  A    between atoms: _295  and  _296
REMARK  120  A    between atoms: _296  and  _297
REMARK  121  A    between atoms: _300  and  _302
REMARK  122  A    between atoms: _302  and  _303
REMARK  123  A    between atoms: _305  and  _307
REMARK  124  A    between atoms: _307  and  _308
REMARK  125  A    between atoms: _307  and  _310
REMARK  126  A    between atoms: _310  and  _311
REMARK  127  A    between atoms: _316  and  _317
REMARK  128  A    between atoms: _319  and  _321
REMARK  129  A    between atoms: _321  and  _322
REMARK  130  A    between atoms: _325  and  _327
REMARK  131  A    between atoms: _327  and  _328
REMARK  132  A    between atoms: _327  and  _330
REMARK  133  A    between atoms: _330  and  _331
REMARK  134  A    between atoms: _335  and  _336
REMARK  135  A    between atoms: _341  and  _343
REMARK  136  A    between atoms: _343  and  _344
REMARK  137  A    between atoms: _343  and  _346
REMARK  138  A    between atoms: _346  and  _347
REMARK  139  A    between atoms: _352  and  _354
REMARK  140  A    between atoms: _354  and  _355
REMARK  141  A    between atoms: _358  and  _360
REMARK  142  A    between atoms: _360  and  _361
REMARK  143  A    between atoms: _360  and  _363
REMARK  144  A    between atoms: _363  and  _364
REMARK  145  A    between atoms: _367  and  _369
REMARK  146  A    between atoms: _369  and  _370
REMARK  147  A    between atoms: _369  and  _372
REMARK  148  A    between atoms: _372  and  _373
REMARK  149  A    between atoms: _376  and  _378
REMARK  150  A    between atoms: _378  and  _379
REMARK  151  A    between atoms: _381  and  _383
REMARK  152  A    between atoms: _383  and  _384
REMARK  153  A    between atoms: _386  and  _388
REMARK  154  A    between atoms: _388  and  _389
REMARK  155  A    between atoms: _388  and  _391
REMARK  156  A    between atoms: _391  and  _392
REMARK  157  A    between atoms: _394  and  _396
REMARK  158  A    between atoms: _396  and  _397
REMARK  159  A    between atoms: _396  and  _399
REMARK  160  A    between atoms: _399  and  _400
REMARK  161  A    between atoms: _403  and  _405
REMARK  162  A    between atoms: _405  and  _406
REMARK  163  A    between atoms: _405  and  _408
REMARK  164  A    between atoms: _408  and  _409
REMARK  165  A    between atoms: _412  and  _414
REMARK  166  A    between atoms: _414  and  _415
REMARK  167  A    between atoms: _418  and  _420
REMARK  168  A    between atoms: _420  and  _421
REMARK  169  A    between atoms: _420  and  _423
REMARK  170  A    between atoms: _423  and  _424
REMARK  171  A    between atoms: _426  and  _428
REMARK  172  A    between atoms: _428  and  _429
REMARK  173  A    between atoms: _428  and  _431
REMARK  174  A    between atoms: _431  and  _432
REMARK  175  A    between atoms: _435  and  _437
REMARK  176  A    between atoms: _437  and  _438
REMARK  177  A    between atoms: _437  and  _440
REMARK  178  A    between atoms: _440  and  _441
REMARK  179  A    between atoms: _443  and  _445
REMARK  180  A    between atoms: _445  and  _446
REMARK  181  A    between atoms: _445  and  _448
REMARK  182  A    between atoms: _448  and  _449
REMARK  183  A    between atoms: _452  and  _454
REMARK  184  A    between atoms: _454  and  _455
REMARK  185  A    between atoms: _454  and  _457
REMARK  186  A    between atoms: _457  and  _458
REMARK  187  A    between atoms: _464  and  _466
REMARK  188  A    between atoms: _466  and  _467
REMARK  189  A    between atoms: _466  and  _469
REMARK  190  A    between atoms: _469  and  _470
REMARK  191  A    between atoms: _470  and  _471
REMARK  192  A    between atoms: _476  and  _478
REMARK  193  A    between atoms: _478  and  _479
REMARK  194  A    between atoms: _478  and  _481
REMARK  195  A    between atoms: _481  and  _482
REMARK  196  A    between atoms: _482  and  _483
REMARK  197  A    between atoms: _488  and  _490
REMARK  198  A    between atoms: _490  and  _491
REMARK  199  A    between atoms: _490  and  _493
REMARK  200  A    between atoms: _493  and  _494
REMARK  201  A    between atoms: _494  and  _495
REMARK  202  A    between atoms: _497  and  _499
REMARK  203  A    between atoms: _499  and  _500
REMARK  204  A    between atoms: _499  and  _502
REMARK  205  A    between atoms: _502  and  _503
REMARK                            x       y       z     vdW  Elec       q    Type
REMARK                         _______ _______ _______ _____ _____    ______ ____
ROOT
ATOM      1  O   HOH     1      15.869 -15.833  39.641  0.00  0.00    +0.000 OA
ENDROOT
TORSDOF 0
REMARK  Name = ../refined-set-2016/2fxu/2fxu_pocket.pdb
REMARK  205 active torsions:
REMARK  status: ('A' for Active; 'I' for Inactive)
REMARK    1  A    between atoms: _1  and  _3
REMARK    2  A    between atoms: _3  and  _4
REMARK    3  A    between atoms: _3  and  _6
REMARK    4  A    between atoms: _6  and  _7
REMARK    5  A    between atoms: _10  and  _12
REMARK    6  A    between atoms: _12  and  _13
REMARK    7  A    between atoms: _12  and  _15
REMARK    8  A    between atoms: _15  and  _16
REMARK    9  A    between atoms: _19  and  _21
REMARK   10  A    between atoms: _21  and  _22
REMARK   11  A    between atoms: _21  and  _24
REMARK   12  A    between atoms: _24  and  _25
REMARK   13  A    between atoms: _28  and  _30
REMARK   14  A    between atoms: _30  and  _31
REMARK   15  A    between atoms: _30  and  _33
REMARK   16  A    between atoms: _33  and  _34
REMARK   17  A    between atoms: _34  and  _35
REMARK   18  A    between atoms: _39  and  _40
REMARK   19  A    between atoms: _45  and  _47
REMARK   20  A    between atoms: _47  and  _48
REMARK   21  A    between atoms: _47  and  _50
REMARK   22  A    between atoms: _50  and  _51
REMARK   23  A    between atoms: _54  and  _56
REMARK   24  A    between atoms: _56  and  _57
REMARK   25  A    between atoms: _56  and  _59
REMARK   26  A    between atoms: _59  and  _60
REMARK   27  A    between atoms: _65  and  _67
REMARK   28  A    between atoms: _67  and  _68
REMARK   29  A    between atoms: _67  and  _70
REMARK   30  A    between atoms: _70  and  _71
REMARK   31  A    between atoms: _71  and  _72
REMARK   32  A    between atoms: _72  and  _73
REMARK   33  A    between atoms: _73  and  _74
REMARK   34  A    between atoms: _78  and  _80
REMARK   35  A    between atoms: _80  and  _81
REMARK   36  A    between atoms: _80  and  _83
REMARK   37  A    between atoms: _83  and  _84
REMARK   38  A    between atoms: _84  and  _85
REMARK   39  A    between atoms: _85  and  _86
REMARK   40  A    between atoms: _95  and  _97
REMARK   41  A    between atoms: _97  and  _98
REMARK   42  A    between atoms: _97  and  _100
REMARK   43  A    between atoms: _100  and  _101
REMARK   44  A    between atoms: _106  and  _107
REMARK   45  A    between atoms: _109  and  _111
REMARK   46  A    between atoms: _111  and  _112
REMARK   47  A    between atoms: _111  and  _114
REMARK   48  A    between atoms: _117  and  _119
REMARK   49  A    between atoms: _119  and  _120
REMARK   50  A    between atoms: _123  and  _125
REMARK   51  A    between atoms: _125  and  _126
REMARK   52  A    between atoms: _125  and  _128
REMARK   53  A    between atoms: _128  and  _129
REMARK   54  A    between atoms: _132  and  _134
REMARK   55  A    between atoms: _134  and  _135
REMARK   56  A    between atoms: _134  and  _137
REMARK   57  A    between atoms: _137  and  _138
REMARK   58  A    between atoms: _138  and  _139
REMARK   59  A    between atoms: _144  and  _146
REMARK   60  A    between atoms: _146  and  _147
REMARK   61  A    between atoms: _150  and  _152
REMARK   62  A    between atoms: _152  and  _153
REMARK   63  A    between atoms: _152  and  _155
REMARK   64  A    between atoms: _158  and  _160
REMARK   65  A    between atoms: _160  and  _161
REMARK   66  A    between atoms: _160  and  _163
REMARK   67  A    between atoms: _163  and  _164
REMARK   68  A    between atoms: _167  and  _169
REMARK   69  A    between atoms: _169  and  _170
REMARK   70  A    between atoms: _169  and  _172
REMARK   71  A    between atoms: _172  and  _173
REMARK   72  A    between atoms: _175  and  _177
REMARK   73  A    between atoms: _177  and  _178
REMARK   74  A    between atoms: _177  and  _180
REMARK   75  A    between atoms: _180  and  _181
REMARK   76  A    between atoms: _184  and  _186
REMARK   77  A    between atoms: _186  and  _187
REMARK   78  A    between atoms: _186  and  _189
REMARK   79  A    between atoms: _189  and  _190
REMARK   80  A    between atoms: _195  and  _196
REMARK   81  A    between atoms: _198  and  _200
REMARK   82  A    between atoms: _200  and  _201
REMARK   83  A    between atoms: _204  and  _206
REMARK   84  A    between atoms: _206  and  _207
REMARK   85  A    between atoms: _206  and  _209
REMARK   86  A    between atoms: _209  and  _210
REMARK   87  A    between atoms: _212  and  _214
REMARK   88  A    between atoms: _214  and  _215
REMARK   89  A    between atoms: _217  and  _219
REMARK   90  A    between atoms: _219  and  _220
REMARK   91  A    between atoms: _219  and  _222
REMARK   92  A    between atoms: _222  and  _223
REMARK   93  A    between atoms: _223  and  _224
REMARK   94  A    between atoms: _224  and  _225
REMARK   95  A    between atoms: _234  and  _236
REMARK   96  A    between atoms: _236  and  _237
REMARK   97  A    between atoms: _236  and  _239
REMARK   98  A    between atoms: _239  and  _240
REMARK   99  A    between atoms: _243  and  _245
REMARK  100  A    between atoms: _245  and  _246
REMARK  101  A    between atoms: _245  and  _248
REMARK  102  A    between atoms: _248  and  _249
REMARK  103  A    between atoms: _252  and  _254
REMARK  104  A    between atoms: _254  and  _255
REMARK  105  A    between atoms: _254  and  _257
REMARK  106  A    between atoms: _261  and  _262
REMARK  107  A    between atoms: _267  and  _269
REMARK  108  A    between atoms: _269  and  _270
REMARK  109  A    between atoms: _269  and  _272
REMARK  110  A    between atoms: _272  and  _273
REMARK  111  A    between atoms: _276  and  _278
REMARK  112  A    between atoms: _278  and  _279
REMARK  113  A    between atoms: _278  and  _281
REMARK  114  A    between atoms: _281  and  _282
REMARK  115  A    between atoms: _287  and  _288
REMARK  116  A    between atoms: _290  and  _292
REMARK  117  A    between atoms: _292  and  _293
REMARK  118  A    between atoms: _292  and  _295
REMARK  119  A    between atoms: _295  and  _296
REMARK  120  A    between atoms: _296  and  _297
REMARK  121  A    between atoms: _300  and  _302
REMARK  122  A    between atoms: _302  and  _303
REMARK  123  A    between atoms: _305  and  _307
REMARK  124  A    between atoms: _307  and  _308
REMARK  125  A    between atoms: _307  and  _310
REMARK  126  A    between atoms: _310  and  _311
REMARK  127  A    between atoms: _316  and  _317
REMARK  128  A    between atoms: _319  and  _321
REMARK  129  A    between atoms: _321  and  _322
REMARK  130  A    between atoms: _325  and  _327
REMARK  131  A    between atoms: _327  and  _328
REMARK  132  A    between atoms: _327  and  _330
REMARK  133  A    between atoms: _330  and  _331
REMARK  134  A    between atoms: _335  and  _336
REMARK  135  A    between atoms: _341  and  _343
REMARK  136  A    between atoms: _343  and  _344
REMARK  137  A    between atoms: _343  and  _346
REMARK  138  A    between atoms: _346  and  _347
REMARK  139  A    between atoms: _352  and  _354
REMARK  140  A    between atoms: _354  and  _355
REMARK  141  A    between atoms: _358  and  _360
REMARK  142  A    between atoms: _360  and  _361
REMARK  143  A    between atoms: _360  and  _363
REMARK  144  A    between atoms: _363  and  _364
REMARK  145  A    between atoms: _367  and  _369
REMARK  146  A    between atoms: _369  and  _370
REMARK  147  A    between atoms: _369  and  _372
REMARK  148  A    between atoms: _372  and  _373
REMARK  149  A    between atoms: _376  and  _378
REMARK  150  A    between atoms: _378  and  _379
REMARK  151  A    between atoms: _381  and  _383
REMARK  152  A    between atoms: _383  and  _384
REMARK  153  A    between atoms: _386  and  _388
REMARK  154  A    between atoms: _388  and  _389
REMARK  155  A    between atoms: _388  and  _391
REMARK  156  A    between atoms: _391  and  _392
REMARK  157  A    between atoms: _394  and  _396
REMARK  158  A    between atoms: _396  and  _397
REMARK  159  A    between atoms: _396  and  _399
REMARK  160  A    between atoms: _399  and  _400
REMARK  161  A    between atoms: _403  and  _405
REMARK  162  A    between atoms: _405  and  _406
REMARK  163  A    between atoms: _405  and  _408
REMARK  164  A    between atoms: _408  and  _409
REMARK  165  A    between atoms: _412  and  _414
REMARK  166  A    between atoms: _414  and  _415
REMARK  167  A    between atoms: _418  and  _420
REMARK  168  A    between atoms: _420  and  _421
REMARK  169  A    between atoms: _420  and  _423
REMARK  170  A    between atoms: _423  and  _424
REMARK  171  A    between atoms: _426  and  _428
REMARK  172  A    between atoms: _428  and  _429
REMARK  173  A    between atoms: _428  and  _431
REMARK  174  A    between atoms: _431  and  _432
REMARK  175  A    between atoms: _435  and  _437
REMARK  176  A    between atoms: _437  and  _438
REMARK  177  A    between atoms: _437  and  _440
REMARK  178  A    between atoms: _440  and  _441
REMARK  179  A    between atoms: _443  and  _445
REMARK  180  A    between atoms: _445  and  _446
REMARK  181  A    between atoms: _445  and  _448
REMARK  182  A    between atoms: _448  and  _449
REMARK  183  A    between atoms: _452  and  _454
REMARK  184  A    between atoms: _454  and  _455
REMARK  185  A    between atoms: _454  and  _457
REMARK  186  A    between atoms: _457  and  _458
REMARK  187  A    between atoms: _464  and  _466
REMARK  188  A    between atoms: _466  and  _467
REMARK  189  A    between atoms: _466  and  _469
REMARK  190  A    between atoms: _469  and  _470
REMARK  191  A    between atoms: _470  and  _471
REMARK  192  A    between atoms: _476  and  _478
REMARK  193  A    between atoms: _478  and  _479
REMARK  194  A    between atoms: _478  and  _481
REMARK  195  A    between atoms: _481  and  _482
REMARK  196  A    between atoms: _482  and  _483
REMARK  197  A    between atoms: _488  and  _490
REMARK  198  A    between atoms: _490  and  _491
REMARK  199  A    between atoms: _490  and  _493
REMARK  200  A    between atoms: _493  and  _494
REMARK  201  A    between atoms: _494  and  _495
REMARK  202  A    between atoms: _497  and  _499
REMARK  203  A    between atoms: _499  and  _500
REMARK  204  A    between atoms: _499  and  _502
REMARK  205  A    between atoms: _502  and  _503
REMARK                            x       y       z     vdW  Elec       q    Type
REMARK                         _______ _______ _______ _____ _____    ______ ____
ROOT
ATOM      1  O   HOH     1       3.562 -17.532  23.018  0.00  0.00    +0.000 OA
ENDROOT
TORSDOF 0
REMARK  Name = ../refined-set-2016/2fxu/2fxu_pocket.pdb
REMARK  205 active torsions:
REMARK  status: ('A' for Active; 'I' for Inactive)
REMARK    1  A    between atoms: _1  and  _3
REMARK    2  A    between atoms: _3  and  _4
REMARK    3  A    between atoms: _3  and  _6
REMARK    4  A    between atoms: _6  and  _7
REMARK    5  A    between atoms: _10  and  _12
REMARK    6  A    between atoms: _12  and  _13
REMARK    7  A    between atoms: _12  and  _15
REMARK    8  A    between atoms: _15  and  _16
REMARK    9  A    between atoms: _19  and  _21
REMARK   10  A    between atoms: _21  and  _22
REMARK   11  A    between atoms: _21  and  _24
REMARK   12  A    between atoms: _24  and  _25
REMARK   13  A    between atoms: _28  and  _30
REMARK   14  A    between atoms: _30  and  _31
REMARK   15  A    between atoms: _30  and  _33
REMARK   16  A    between atoms: _33  and  _34
REMARK   17  A    between atoms: _34  and  _35
REMARK   18  A    between atoms: _39  and  _40
REMARK   19  A    between atoms: _45  and  _47
REMARK   20  A    between atoms: _47  and  _48
REMARK   21  A    between atoms: _47  and  _50
REMARK   22  A    between atoms: _50  and  _51
REMARK   23  A    between atoms: _54  and  _56
REMARK   24  A    between atoms: _56  and  _57
REMARK   25  A    between atoms: _56  and  _59
REMARK   26  A    between atoms: _59  and  _60
REMARK   27  A    between atoms: _65  and  _67
REMARK   28  A    between atoms: _67  and  _68
REMARK   29  A    between atoms: _67  and  _70
REMARK   30  A    between atoms: _70  and  _71
REMARK   31  A    between atoms: _71  and  _72
REMARK   32  A    between atoms: _72  and  _73
REMARK   33  A    between atoms: _73  and  _74
REMARK   34  A    between atoms: _78  and  _80
REMARK   35  A    between atoms: _80  and  _81
REMARK   36  A    between atoms: _80  and  _83
REMARK   37  A    between atoms: _83  and  _84
REMARK   38  A    between atoms: _84  and  _85
REMARK   39  A    between atoms: _85  and  _86
REMARK   40  A    between atoms: _95  and  _97
REMARK   41  A    between atoms: _97  and  _98
REMARK   42  A    between atoms: _97  and  _100
REMARK   43  A    between atoms: _100  and  _101
REMARK   44  A    between atoms: _106  and  _107
REMARK   45  A    between atoms: _109  and  _111
REMARK   46  A    between atoms: _111  and  _112
REMARK   47  A    between atoms: _111  and  _114
REMARK   48  A    between atoms: _117  and  _119
REMARK   49  A    between atoms: _119  and  _120
REMARK   50  A    between atoms: _123  and  _125
REMARK   51  A    between atoms: _125  and  _126
REMARK   52  A    between atoms: _125  and  _128
REMARK   53  A    between atoms: _128  and  _129
REMARK   54  A    between atoms: _132  and  _134
REMARK   55  A    between atoms: _134  and  _135
REMARK   56  A    between atoms: _134  and  _137
REMARK   57  A    between atoms: _137  and  _138
REMARK   58  A    between atoms: _138  and  _139
REMARK   59  A    between atoms: _144  and  _146
REMARK   60  A    between atoms: _146  and  _147
REMARK   61  A    between atoms: _150  and  _152
REMARK   62  A    between atoms: _152  and  _153
REMARK   63  A    between atoms: _152  and  _155
REMARK   64  A    between atoms: _158  and  _160
REMARK   65  A    between atoms: _160  and  _161
REMARK   66  A    between atoms: _160  and  _163
REMARK   67  A    between atoms: _163  and  _164
REMARK   68  A    between atoms: _167  and  _169
REMARK   69  A    between atoms: _169  and  _170
REMARK   70  A    between atoms: _169  and  _172
REMARK   71  A    between atoms: _172  and  _173
REMARK   72  A    between atoms: _175  and  _177
REMARK   73  A    between atoms: _177  and  _178
REMARK   74  A    between atoms: _177  and  _180
REMARK   75  A    between atoms: _180  and  _181
REMARK   76  A    between atoms: _184  and  _186
REMARK   77  A    between atoms: _186  and  _187
REMARK   78  A    between atoms: _186  and  _189
REMARK   79  A    between atoms: _189  and  _190
REMARK   80  A    between atoms: _195  and  _196
REMARK   81  A    between atoms: _198  and  _200
REMARK   82  A    between atoms: _200  and  _201
REMARK   83  A    between atoms: _204  and  _206
REMARK   84  A    between atoms: _206  and  _207
REMARK   85  A    between atoms: _206  and  _209
REMARK   86  A    between atoms: _209  and  _210
REMARK   87  A    between atoms: _212  and  _214
REMARK   88  A    between atoms: _214  and  _215
REMARK   89  A    between atoms: _217  and  _219
REMARK   90  A    between atoms: _219  and  _220
REMARK   91  A    between atoms: _219  and  _222
REMARK   92  A    between atoms: _222  and  _223
REMARK   93  A    between atoms: _223  and  _224
REMARK   94  A    between atoms: _224  and  _225
REMARK   95  A    between atoms: _234  and  _236
REMARK   96  A    between atoms: _236  and  _237
REMARK   97  A    between atoms: _236  and  _239
REMARK   98  A    between atoms: _239  and  _240
REMARK   99  A    between atoms: _243  and  _245
REMARK  100  A    between atoms: _245  and  _246
REMARK  101  A    between atoms: _245  and  _248
REMARK  102  A    between atoms: _248  and  _249
REMARK  103  A    between atoms: _252  and  _254
REMARK  104  A    between atoms: _254  and  _255
REMARK  105  A    between atoms: _254  and  _257
REMARK  106  A    between atoms: _261  and  _262
REMARK  107  A    between atoms: _267  and  _269
REMARK  108  A    between atoms: _269  and  _270
REMARK  109  A    between atoms: _269  and  _272
REMARK  110  A    between atoms: _272  and  _273
REMARK  111  A    between atoms: _276  and  _278
REMARK  112  A    between atoms: _278  and  _279
REMARK  113  A    between atoms: _278  and  _281
REMARK  114  A    between atoms: _281  and  _282
REMARK  115  A    between atoms: _287  and  _288
REMARK  116  A    between atoms: _290  and  _292
REMARK  117  A    between atoms: _292  and  _293
REMARK  118  A    between atoms: _292  and  _295
REMARK  119  A    between atoms: _295  and  _296
REMARK  120  A    between atoms: _296  and  _297
REMARK  121  A    between atoms: _300  and  _302
REMARK  122  A    between atoms: _302  and  _303
REMARK  123  A    between atoms: _305  and  _307
REMARK  124  A    between atoms: _307  and  _308
REMARK  125  A    between atoms: _307  and  _310
REMARK  126  A    between atoms: _310  and  _311
REMARK  127  A    between atoms: _316  and  _317
REMARK  128  A    between atoms: _319  and  _321
REMARK  129  A    between atoms: _321  and  _322
REMARK  130  A    between atoms: _325  and  _327
REMARK  131  A    between atoms: _327  and  _328
REMARK  132  A    between atoms: _327  and  _330
REMARK  133  A    between atoms: _330  and  _331
REMARK  134  A    between atoms: _335  and  _336
REMARK  135  A    between atoms: _341  and  _343
REMARK  136  A    between atoms: _343  and  _344
REMARK  137  A    between atoms: _343  and  _346
REMARK  138  A    between atoms: _346  and  _347
REMARK  139  A    between atoms: _352  and  _354
REMARK  140  A    between atoms: _354  and  _355
REMARK  141  A    between atoms: _358  and  _360
REMARK  142  A    between atoms: _360  and  _361
REMARK  143  A    between atoms: _360  and  _363
REMARK  144  A    between atoms: _363  and  _364
REMARK  145  A    between atoms: _367  and  _369
REMARK  146  A    between atoms: _369  and  _370
REMARK  147  A    between atoms: _369  and  _372
REMARK  148  A    between atoms: _372  and  _373
REMARK  149  A    between atoms: _376  and  _378
REMARK  150  A    between atoms: _378  and  _379
REMARK  151  A    between atoms: _381  and  _383
REMARK  152  A    between atoms: _383  and  _384
REMARK  153  A    between atoms: _386  and  _388
REMARK  154  A    between atoms: _388  and  _389
REMARK  155  A    between atoms: _388  and  _391
REMARK  156  A    between atoms: _391  and  _392
REMARK  157  A    between atoms: _394  and  _396
REMARK  158  A    between atoms: _396  and  _397
REMARK  159  A    between atoms: _396  and  _399
REMARK  160  A    between atoms: _399  and  _400
REMARK  161  A    between atoms: _403  and  _405
REMARK  162  A    between atoms: _405  and  _406
REMARK  163  A    between atoms: _405  and  _408
REMARK  164  A    between atoms: _408  and  _409
REMARK  165  A    between atoms: _412  and  _414
REMARK  166  A    between atoms: _414  and  _415
REMARK  167  A    between atoms: _418  and  _420
REMARK  168  A    between atoms: _420  and  _421
REMARK  169  A    between atoms: _420  and  _423
REMARK  170  A    between atoms: _423  and  _424
REMARK  171  A    between atoms: _426  and  _428
REMARK  172  A    between atoms: _428  and  _429
REMARK  173  A    between atoms: _428  and  _431
REMARK  174  A    between atoms: _431  and  _432
REMARK  175  A    between atoms: _435  and  _437
REMARK  176  A    between atoms: _437  and  _438
REMARK  177  A    between atoms: _437  and  _440
REMARK  178  A    between atoms: _440  and  _441
REMARK  179  A    between atoms: _443  and  _445
REMARK  180  A    between atoms: _445  and  _446
REMARK  181  A    between atoms: _445  and  _448
REMARK  182  A    between atoms: _448  and  _449
REMARK  183  A    between atoms: _452  and  _454
REMARK  184  A    between atoms: _454  and  _455
REMARK  185  A    between atoms: _454  and  _457
REMARK  186  A    between atoms: _457  and  _458
REMARK  187  A    between atoms: _464  and  _466
REMARK  188  A    between atoms: _466  and  _467
REMARK  189  A    between atoms: _466  and  _469
REMARK  190  A    between atoms: _469  and  _470
REMARK  191  A    between atoms: _470  and  _471
REMARK  192  A    between atoms: _476  and  _478
REMARK  193  A    between atoms: _478  and  _479
REMARK  194  A    between atoms: _478  and  _481
REMARK  195  A    between atoms: _481  and  _482
REMARK  196  A    between atoms: _482  and  _483
REMARK  197  A    between atoms: _488  and  _490
REMARK  198  A    between atoms: _490  and  _491
REMARK  199  A    between atoms: _490  and  _493
REMARK  200  A    between atoms: _493  and  _494
REMARK  201  A    between atoms: _494  and  _495
REMARK  202  A    between atoms: _497  and  _499
REMARK  203  A    between atoms: _499  and  _500
REMARK  204  A    between atoms: _499  and  _502
REMARK  205  A    between atoms: _502  and  _503
REMARK                            x       y       z     vdW  Elec       q    Type
REMARK                         _______ _______ _______ _____ _____    ______ ____
ROOT
ATOM      1  O   HOH     1       4.633 -19.337  24.509  0.00  0.00    +0.000 OA
ENDROOT
TORSDOF 0
REMARK  Name = ../refined-set-2016/2fxu/2fxu_pocket.pdb
REMARK  205 active torsions:
REMARK  status: ('A' for Active; 'I' for Inactive)
REMARK    1  A    between atoms: _1  and  _3
REMARK    2  A    between atoms: _3  and  _4
REMARK    3  A    between atoms: _3  and  _6
REMARK    4  A    between atoms: _6  and  _7
REMARK    5  A    between atoms: _10  and  _12
REMARK    6  A    between atoms: _12  and  _13
REMARK    7  A    between atoms: _12  and  _15
REMARK    8  A    between atoms: _15  and  _16
REMARK    9  A    between atoms: _19  and  _21
REMARK   10  A    between atoms: _21  and  _22
REMARK   11  A    between atoms: _21  and  _24
REMARK   12  A    between atoms: _24  and  _25
REMARK   13  A    between atoms: _28  and  _30
REMARK   14  A    between atoms: _30  and  _31
REMARK   15  A    between atoms: _30  and  _33
REMARK   16  A    between atoms: _33  and  _34
REMARK   17  A    between atoms: _34  and  _35
REMARK   18  A    between atoms: _39  and  _40
REMARK   19  A    between atoms: _45  and  _47
REMARK   20  A    between atoms: _47  and  _48
REMARK   21  A    between atoms: _47  and  _50
REMARK   22  A    between atoms: _50  and  _51
REMARK   23  A    between atoms: _54  and  _56
REMARK   24  A    between atoms: _56  and  _57
REMARK   25  A    between atoms: _56  and  _59
REMARK   26  A    between atoms: _59  and  _60
REMARK   27  A    between atoms: _65  and  _67
REMARK   28  A    between atoms: _67  and  _68
REMARK   29  A    between atoms: _67  and  _70
REMARK   30  A    between atoms: _70  and  _71
REMARK   31  A    between atoms: _71  and  _72
REMARK   32  A    between atoms: _72  and  _73
REMARK   33  A    between atoms: _73  and  _74
REMARK   34  A    between atoms: _78  and  _80
REMARK   35  A    between atoms: _80  and  _81
REMARK   36  A    between atoms: _80  and  _83
REMARK   37  A    between atoms: _83  and  _84
REMARK   38  A    between atoms: _84  and  _85
REMARK   39  A    between atoms: _85  and  _86
REMARK   40  A    between atoms: _95  and  _97
REMARK   41  A    between atoms: _97  and  _98
REMARK   42  A    between atoms: _97  and  _100
REMARK   43  A    between atoms: _100  and  _101
REMARK   44  A    between atoms: _106  and  _107
REMARK   45  A    between atoms: _109  and  _111
REMARK   46  A    between atoms: _111  and  _112
REMARK   47  A    between atoms: _111  and  _114
REMARK   48  A    between atoms: _117  and  _119
REMARK   49  A    between atoms: _119  and  _120
REMARK   50  A    between atoms: _123  and  _125
REMARK   51  A    between atoms: _125  and  _126
REMARK   52  A    between atoms: _125  and  _128
REMARK   53  A    between atoms: _128  and  _129
REMARK   54  A    between atoms: _132  and  _134
REMARK   55  A    between atoms: _134  and  _135
REMARK   56  A    between atoms: _134  and  _137
REMARK   57  A    between atoms: _137  and  _138
REMARK   58  A    between atoms: _138  and  _139
REMARK   59  A    between atoms: _144  and  _146
REMARK   60  A    between atoms: _146  and  _147
REMARK   61  A    between atoms: _150  and  _152
REMARK   62  A    between atoms: _152  and  _153
REMARK   63  A    between atoms: _152  and  _155
REMARK   64  A    between atoms: _158  and  _160
REMARK   65  A    between atoms: _160  and  _161
REMARK   66  A    between atoms: _160  and  _163
REMARK   67  A    between atoms: _163  and  _164
REMARK   68  A    between atoms: _167  and  _169
REMARK   69  A    between atoms: _169  and  _170
REMARK   70  A    between atoms: _169  and  _172
REMARK   71  A    between atoms: _172  and  _173
REMARK   72  A    between atoms: _175  and  _177
REMARK   73  A    between atoms: _177  and  _178
REMARK   74  A    between atoms: _177  and  _180
REMARK   75  A    between atoms: _180  and  _181
REMARK   76  A    between atoms: _184  and  _186
REMARK   77  A    between atoms: _186  and  _187
REMARK   78  A    between atoms: _186  and  _189
REMARK   79  A    between atoms: _189  and  _190
REMARK   80  A    between atoms: _195  and  _196
REMARK   81  A    between atoms: _198  and  _200
REMARK   82  A    between atoms: _200  and  _201
REMARK   83  A    between atoms: _204  and  _206
REMARK   84  A    between atoms: _206  and  _207
REMARK   85  A    between atoms: _206  and  _209
REMARK   86  A    between atoms: _209  and  _210
REMARK   87  A    between atoms: _212  and  _214
REMARK   88  A    between atoms: _214  and  _215
REMARK   89  A    between atoms: _217  and  _219
REMARK   90  A    between atoms: _219  and  _220
REMARK   91  A    between atoms: _219  and  _222
REMARK   92  A    between atoms: _222  and  _223
REMARK   93  A    between atoms: _223  and  _224
REMARK   94  A    between atoms: _224  and  _225
REMARK   95  A    between atoms: _234  and  _236
REMARK   96  A    between atoms: _236  and  _237
REMARK   97  A    between atoms: _236  and  _239
REMARK   98  A    between atoms: _239  and  _240
REMARK   99  A    between atoms: _243  and  _245
REMARK  100  A    between atoms: _245  and  _246
REMARK  101  A    between atoms: _245  and  _248
REMARK  102  A    between atoms: _248  and  _249
REMARK  103  A    between atoms: _252  and  _254
REMARK  104  A    between atoms: _254  and  _255
REMARK  105  A    between atoms: _254  and  _257
REMARK  106  A    between atoms: _261  and  _262
REMARK  107  A    between atoms: _267  and  _269
REMARK  108  A    between atoms: _269  and  _270
REMARK  109  A    between atoms: _269  and  _272
REMARK  110  A    between atoms: _272  and  _273
REMARK  111  A    between atoms: _276  and  _278
REMARK  112  A    between atoms: _278  and  _279
REMARK  113  A    between atoms: _278  and  _281
REMARK  114  A    between atoms: _281  and  _282
REMARK  115  A    between atoms: _287  and  _288
REMARK  116  A    between atoms: _290  and  _292
REMARK  117  A    between atoms: _292  and  _293
REMARK  118  A    between atoms: _292  and  _295
REMARK  119  A    between atoms: _295  and  _296
REMARK  120  A    between atoms: _296  and  _297
REMARK  121  A    between atoms: _300  and  _302
REMARK  122  A    between atoms: _302  and  _303
REMARK  123  A    between atoms: _305  and  _307
REMARK  124  A    between atoms: _307  and  _308
REMARK  125  A    between atoms: _307  and  _310
REMARK  126  A    between atoms: _310  and  _311
REMARK  127  A    between atoms: _316  and  _317
REMARK  128  A    between atoms: _319  and  _321
REMARK  129  A    between atoms: _321  and  _322
REMARK  130  A    between atoms: _325  and  _327
REMARK  131  A    between atoms: _327  and  _328
REMARK  132  A    between atoms: _327  and  _330
REMARK  133  A    between atoms: _330  and  _331
REMARK  134  A    between atoms: _335  and  _336
REMARK  135  A    between atoms: _341  and  _343
REMARK  136  A    between atoms: _343  and  _344
REMARK  137  A    between atoms: _343  and  _346
REMARK  138  A    between atoms: _346  and  _347
REMARK  139  A    between atoms: _352  and  _354
REMARK  140  A    between atoms: _354  and  _355
REMARK  141  A    between atoms: _358  and  _360
REMARK  142  A    between atoms: _360  and  _361
REMARK  143  A    between atoms: _360  and  _363
REMARK  144  A    between atoms: _363  and  _364
REMARK  145  A    between atoms: _367  and  _369
REMARK  146  A    between atoms: _369  and  _370
REMARK  147  A    between atoms: _369  and  _372
REMARK  148  A    between atoms: _372  and  _373
REMARK  149  A    between atoms: _376  and  _378
REMARK  150  A    between atoms: _378  and  _379
REMARK  151  A    between atoms: _381  and  _383
REMARK  152  A    between atoms: _383  and  _384
REMARK  153  A    between atoms: _386  and  _388
REMARK  154  A    between atoms: _388  and  _389
REMARK  155  A    between atoms: _388  and  _391
REMARK  156  A    between atoms: _391  and  _392
REMARK  157  A    between atoms: _394  and  _396
REMARK  158  A    between atoms: _396  and  _397
REMARK  159  A    between atoms: _396  and  _399
REMARK  160  A    between atoms: _399  and  _400
REMARK  161  A    between atoms: _403  and  _405
REMARK  162  A    between atoms: _405  and  _406
REMARK  163  A    between atoms: _405  and  _408
REMARK  164  A    between atoms: _408  and  _409
REMARK  165  A    between atoms: _412  and  _414
REMARK  166  A    between atoms: _414  and  _415
REMARK  167  A    between atoms: _418  and  _420
REMARK  168  A    between atoms: _420  and  _421
REMARK  169  A    between atoms: _420  and  _423
REMARK  170  A    between atoms: _423  and  _424
REMARK  171  A    between atoms: _426  and  _428
REMARK  172  A    between atoms: _428  and  _429
REMARK  173  A    between atoms: _428  and  _431
REMARK  174  A    between atoms: _431  and  _432
REMARK  175  A    between atoms: _435  and  _437
REMARK  176  A    between atoms: _437  and  _438
REMARK  177  A    between atoms: _437  and  _440
REMARK  178  A    between atoms: _440  and  _441
REMARK  179  A    between atoms: _443  and  _445
REMARK  180  A    between atoms: _445  and  _446
REMARK  181  A    between atoms: _445  and  _448
REMARK  182  A    between atoms: _448  and  _449
REMARK  183  A    between atoms: _452  and  _454
REMARK  184  A    between atoms: _454  and  _455
REMARK  185  A    between atoms: _454  and  _457
REMARK  186  A    between atoms: _457  and  _458
REMARK  187  A    between atoms: _464  and  _466
REMARK  188  A    between atoms: _466  and  _467
REMARK  189  A    between atoms: _466  and  _469
REMARK  190  A    between atoms: _469  and  _470
REMARK  191  A    between atoms: _470  and  _471
REMARK  192  A    between atoms: _476  and  _478
REMARK  193  A    between atoms: _478  and  _479
REMARK  194  A    between atoms: _478  and  _481
REMARK  195  A    between atoms: _481  and  _482
REMARK  196  A    between atoms: _482  and  _483
REMARK  197  A    between atoms: _488  and  _490
REMARK  198  A    between atoms: _490  and  _491
REMARK  199  A    between atoms: _490  and  _493
REMARK  200  A    between atoms: _493  and  _494
REMARK  201  A    between atoms: _494  and  _495
REMARK  202  A    between atoms: _497  and  _499
REMARK  203  A    between atoms: _499  and  _500
REMARK  204  A    between atoms: _499  and  _502
REMARK  205  A    between atoms: _502  and  _503
REMARK                            x       y       z     vdW  Elec       q    Type
REMARK                         _______ _______ _______ _____ _____    ______ ____
ROOT
ATOM      1  O   HOH     1      19.502 -22.214  36.683  0.00  0.00    +0.000 OA
ENDROOT
TORSDOF 0
REMARK  Name = ../refined-set-2016/2fxu/2fxu_pocket.pdb
REMARK  205 active torsions:
REMARK  status: ('A' for Active; 'I' for Inactive)
REMARK    1  A    between atoms: _1  and  _3
REMARK    2  A    between atoms: _3  and  _4
REMARK    3  A    between atoms: _3  and  _6
REMARK    4  A    between atoms: _6  and  _7
REMARK    5  A    between atoms: _10  and  _12
REMARK    6  A    between atoms: _12  and  _13
REMARK    7  A    between atoms: _12  and  _15
REMARK    8  A    between atoms: _15  and  _16
REMARK    9  A    between atoms: _19  and  _21
REMARK   10  A    between atoms: _21  and  _22
REMARK   11  A    between atoms: _21  and  _24
REMARK   12  A    between atoms: _24  and  _25
REMARK   13  A    between atoms: _28  and  _30
REMARK   14  A    between atoms: _30  and  _31
REMARK   15  A    between atoms: _30  and  _33
REMARK   16  A    between atoms: _33  and  _34
REMARK   17  A    between atoms: _34  and  _35
REMARK   18  A    between atoms: _39  and  _40
REMARK   19  A    between atoms: _45  and  _47
REMARK   20  A    between atoms: _47  and  _48
REMARK   21  A    between atoms: _47  and  _50
REMARK   22  A    between atoms: _50  and  _51
REMARK   23  A    between atoms: _54  and  _56
REMARK   24  A    between atoms: _56  and  _57
REMARK   25  A    between atoms: _56  and  _59
REMARK   26  A    between atoms: _59  and  _60
REMARK   27  A    between atoms: _65  and  _67
REMARK   28  A    between atoms: _67  and  _68
REMARK   29  A    between atoms: _67  and  _70
REMARK   30  A    between atoms: _70  and  _71
REMARK   31  A    between atoms: _71  and  _72
REMARK   32  A    between atoms: _72  and  _73
REMARK   33  A    between atoms: _73  and  _74
REMARK   34  A    between atoms: _78  and  _80
REMARK   35  A    between atoms: _80  and  _81
REMARK   36  A    between atoms: _80  and  _83
REMARK   37  A    between atoms: _83  and  _84
REMARK   38  A    between atoms: _84  and  _85
REMARK   39  A    between atoms: _85  and  _86
REMARK   40  A    between atoms: _95  and  _97
REMARK   41  A    between atoms: _97  and  _98
REMARK   42  A    between atoms: _97  and  _100
REMARK   43  A    between atoms: _100  and  _101
REMARK   44  A    between atoms: _106  and  _107
REMARK   45  A    between atoms: _109  and  _111
REMARK   46  A    between atoms: _111  and  _112
REMARK   47  A    between atoms: _111  and  _114
REMARK   48  A    between atoms: _117  and  _119
REMARK   49  A    between atoms: _119  and  _120
REMARK   50  A    between atoms: _123  and  _125
REMARK   51  A    between atoms: _125  and  _126
REMARK   52  A    between atoms: _125  and  _128
REMARK   53  A    between atoms: _128  and  _129
REMARK   54  A    between atoms: _132  and  _134
REMARK   55  A    between atoms: _134  and  _135
REMARK   56  A    between atoms: _134  and  _137
REMARK   57  A    between atoms: _137  and  _138
REMARK   58  A    between atoms: _138  and  _139
REMARK   59  A    between atoms: _144  and  _146
REMARK   60  A    between atoms: _146  and  _147
REMARK   61  A    between atoms: _150  and  _152
REMARK   62  A    between atoms: _152  and  _153
REMARK   63  A    between atoms: _152  and  _155
REMARK   64  A    between atoms: _158  and  _160
REMARK   65  A    between atoms: _160  and  _161
REMARK   66  A    between atoms: _160  and  _163
REMARK   67  A    between atoms: _163  and  _164
REMARK   68  A    between atoms: _167  and  _169
REMARK   69  A    between atoms: _169  and  _170
REMARK   70  A    between atoms: _169  and  _172
REMARK   71  A    between atoms: _172  and  _173
REMARK   72  A    between atoms: _175  and  _177
REMARK   73  A    between atoms: _177  and  _178
REMARK   74  A    between atoms: _177  and  _180
REMARK   75  A    between atoms: _180  and  _181
REMARK   76  A    between atoms: _184  and  _186
REMARK   77  A    between atoms: _186  and  _187
REMARK   78  A    between atoms: _186  and  _189
REMARK   79  A    between atoms: _189  and  _190
REMARK   80  A    between atoms: _195  and  _196
REMARK   81  A    between atoms: _198  and  _200
REMARK   82  A    between atoms: _200  and  _201
REMARK   83  A    between atoms: _204  and  _206
REMARK   84  A    between atoms: _206  and  _207
REMARK   85  A    between atoms: _206  and  _209
REMARK   86  A    between atoms: _209  and  _210
REMARK   87  A    between atoms: _212  and  _214
REMARK   88  A    between atoms: _214  and  _215
REMARK   89  A    between atoms: _217  and  _219
REMARK   90  A    between atoms: _219  and  _220
REMARK   91  A    between atoms: _219  and  _222
REMARK   92  A    between atoms: _222  and  _223
REMARK   93  A    between atoms: _223  and  _224
REMARK   94  A    between atoms: _224  and  _225
REMARK   95  A    between atoms: _234  and  _236
REMARK   96  A    between atoms: _236  and  _237
REMARK   97  A    between atoms: _236  and  _239
REMARK   98  A    between atoms: _239  and  _240
REMARK   99  A    between atoms: _243  and  _245
REMARK  100  A    between atoms: _245  and  _246
REMARK  101  A    between atoms: _245  and  _248
REMARK  102  A    between atoms: _248  and  _249
REMARK  103  A    between atoms: _252  and  _254
REMARK  104  A    between atoms: _254  and  _255
REMARK  105  A    between atoms: _254  and  _257
REMARK  106  A    between atoms: _261  and  _262
REMARK  107  A    between atoms: _267  and  _269
REMARK  108  A    between atoms: _269  and  _270
REMARK  109  A    between atoms: _269  and  _272
REMARK  110  A    between atoms: _272  and  _273
REMARK  111  A    between atoms: _276  and  _278
REMARK  112  A    between atoms: _278  and  _279
REMARK  113  A    between atoms: _278  and  _281
REMARK  114  A    between atoms: _281  and  _282
REMARK  115  A    between atoms: _287  and  _288
REMARK  116  A    between atoms: _290  and  _292
REMARK  117  A    between atoms: _292  and  _293
REMARK  118  A    between atoms: _292  and  _295
REMARK  119  A    between atoms: _295  and  _296
REMARK  120  A    between atoms: _296  and  _297
REMARK  121  A    between atoms: _300  and  _302
REMARK  122  A    between atoms: _302  and  _303
REMARK  123  A    between atoms: _305  and  _307
REMARK  124  A    between atoms: _307  and  _308
REMARK  125  A    between atoms: _307  and  _310
REMARK  126  A    between atoms: _310  and  _311
REMARK  127  A    between atoms: _316  and  _317
REMARK  128  A    between atoms: _319  and  _321
REMARK  129  A    between atoms: _321  and  _322
REMARK  130  A    between atoms: _325  and  _327
REMARK  131  A    between atoms: _327  and  _328
REMARK  132  A    between atoms: _327  and  _330
REMARK  133  A    between atoms: _330  and  _331
REMARK  134  A    between atoms: _335  and  _336
REMARK  135  A    between atoms: _341  and  _343
REMARK  136  A    between atoms: _343  and  _344
REMARK  137  A    between atoms: _343  and  _346
REMARK  138  A    between atoms: _346  and  _347
REMARK  139  A    between atoms: _352  and  _354
REMARK  140  A    between atoms: _354  and  _355
REMARK  141  A    between atoms: _358  and  _360
REMARK  142  A    between atoms: _360  and  _361
REMARK  143  A    between atoms: _360  and  _363
REMARK  144  A    between atoms: _363  and  _364
REMARK  145  A    between atoms: _367  and  _369
REMARK  146  A    between atoms: _369  and  _370
REMARK  147  A    between atoms: _369  and  _372
REMARK  148  A    between atoms: _372  and  _373
REMARK  149  A    between atoms: _376  and  _378
REMARK  150  A    between atoms: _378  and  _379
REMARK  151  A    between atoms: _381  and  _383
REMARK  152  A    between atoms: _383  and  _384
REMARK  153  A    between atoms: _386  and  _388
REMARK  154  A    between atoms: _388  and  _389
REMARK  155  A    between atoms: _388  and  _391
REMARK  156  A    between atoms: _391  and  _392
REMARK  157  A    between atoms: _394  and  _396
REMARK  158  A    between atoms: _396  and  _397
REMARK  159  A    between atoms: _396  and  _399
REMARK  160  A    between atoms: _399  and  _400
REMARK  161  A    between atoms: _403  and  _405
REMARK  162  A    between atoms: _405  and  _406
REMARK  163  A    between atoms: _405  and  _408
REMARK  164  A    between atoms: _408  and  _409
REMARK  165  A    between atoms: _412  and  _414
REMARK  166  A    between atoms: _414  and  _415
REMARK  167  A    between atoms: _418  and  _420
REMARK  168  A    between atoms: _420  and  _421
REMARK  169  A    between atoms: _420  and  _423
REMARK  170  A    between atoms: _423  and  _424
REMARK  171  A    between atoms: _426  and  _428
REMARK  172  A    between atoms: _428  and  _429
REMARK  173  A    between atoms: _428  and  _431
REMARK  174  A    between atoms: _431  and  _432
REMARK  175  A    between atoms: _435  and  _437
REMARK  176  A    between atoms: _437  and  _438
REMARK  177  A    between atoms: _437  and  _440
REMARK  178  A    between atoms: _440  and  _441
REMARK  179  A    between atoms: _443  and  _445
REMARK  180  A    between atoms: _445  and  _446
REMARK  181  A    between atoms: _445  and  _448
REMARK  182  A    between atoms: _448  and  _449
REMARK  183  A    between atoms: _452  and  _454
REMARK  184  A    between atoms: _454  and  _455
REMARK  185  A    between atoms: _454  and  _457
REMARK  186  A    between atoms: _457  and  _458
REMARK  187  A    between atoms: _464  and  _466
REMARK  188  A    between atoms: _466  and  _467
REMARK  189  A    between atoms: _466  and  _469
REMARK  190  A    between atoms: _469  and  _470
REMARK  191  A    between atoms: _470  and  _471
REMARK  192  A    between atoms: _476  and  _478
REMARK  193  A    between atoms: _478  and  _479
REMARK  194  A    between atoms: _478  and  _481
REMARK  195  A    between atoms: _481  and  _482
REMARK  196  A    between atoms: _482  and  _483
REMARK  197  A    between atoms: _488  and  _490
REMARK  198  A    between atoms: _490  and  _491
REMARK  199  A    between atoms: _490  and  _493
REMARK  200  A    between atoms: _493  and  _494
REMARK  201  A    between atoms: _494  and  _495
REMARK  202  A    between atoms: _497  and  _499
REMARK  203  A    between atoms: _499  and  _500
REMARK  204  A    between atoms: _499  and  _502
REMARK  205  A    between atoms: _502  and  _503
REMARK                            x       y       z     vdW  Elec       q    Type
REMARK                         _______ _______ _______ _____ _____    ______ ____
ROOT
ATOM      1  O   HOH     1      12.217 -23.510  26.724  0.00  0.00    +0.000 OA
ENDROOT
TORSDOF 0
REMARK  Name = ../refined-set-2016/2fxu/2fxu_pocket.pdb
REMARK  205 active torsions:
REMARK  status: ('A' for Active; 'I' for Inactive)
REMARK    1  A    between atoms: _1  and  _3
REMARK    2  A    between atoms: _3  and  _4
REMARK    3  A    between atoms: _3  and  _6
REMARK    4  A    between atoms: _6  and  _7
REMARK    5  A    between atoms: _10  and  _12
REMARK    6  A    between atoms: _12  and  _13
REMARK    7  A    between atoms: _12  and  _15
REMARK    8  A    between atoms: _15  and  _16
REMARK    9  A    between atoms: _19  and  _21
REMARK   10  A    between atoms: _21  and  _22
REMARK   11  A    between atoms: _21  and  _24
REMARK   12  A    between atoms: _24  and  _25
REMARK   13  A    between atoms: _28  and  _30
REMARK   14  A    between atoms: _30  and  _31
REMARK   15  A    between atoms: _30  and  _33
REMARK   16  A    between atoms: _33  and  _34
REMARK   17  A    between atoms: _34  and  _35
REMARK   18  A    between atoms: _39  and  _40
REMARK   19  A    between atoms: _45  and  _47
REMARK   20  A    between atoms: _47  and  _48
REMARK   21  A    between atoms: _47  and  _50
REMARK   22  A    between atoms: _50  and  _51
REMARK   23  A    between atoms: _54  and  _56
REMARK   24  A    between atoms: _56  and  _57
REMARK   25  A    between atoms: _56  and  _59
REMARK   26  A    between atoms: _59  and  _60
REMARK   27  A    between atoms: _65  and  _67
REMARK   28  A    between atoms: _67  and  _68
REMARK   29  A    between atoms: _67  and  _70
REMARK   30  A    between atoms: _70  and  _71
REMARK   31  A    between atoms: _71  and  _72
REMARK   32  A    between atoms: _72  and  _73
REMARK   33  A    between atoms: _73  and  _74
REMARK   34  A    between atoms: _78  and  _80
REMARK   35  A    between atoms: _80  and  _81
REMARK   36  A    between atoms: _80  and  _83
REMARK   37  A    between atoms: _83  and  _84
REMARK   38  A    between atoms: _84  and  _85
REMARK   39  A    between atoms: _85  and  _86
REMARK   40  A    between atoms: _95  and  _97
REMARK   41  A    between atoms: _97  and  _98
REMARK   42  A    between atoms: _97  and  _100
REMARK   43  A    between atoms: _100  and  _101
REMARK   44  A    between atoms: _106  and  _107
REMARK   45  A    between atoms: _109  and  _111
REMARK   46  A    between atoms: _111  and  _112
REMARK   47  A    between atoms: _111  and  _114
REMARK   48  A    between atoms: _117  and  _119
REMARK   49  A    between atoms: _119  and  _120
REMARK   50  A    between atoms: _123  and  _125
REMARK   51  A    between atoms: _125  and  _126
REMARK   52  A    between atoms: _125  and  _128
REMARK   53  A    between atoms: _128  and  _129
REMARK   54  A    between atoms: _132  and  _134
REMARK   55  A    between atoms: _134  and  _135
REMARK   56  A    between atoms: _134  and  _137
REMARK   57  A    between atoms: _137  and  _138
REMARK   58  A    between atoms: _138  and  _139
REMARK   59  A    between atoms: _144  and  _146
REMARK   60  A    between atoms: _146  and  _147
REMARK   61  A    between atoms: _150  and  _152
REMARK   62  A    between atoms: _152  and  _153
REMARK   63  A    between atoms: _152  and  _155
REMARK   64  A    between atoms: _158  and  _160
REMARK   65  A    between atoms: _160  and  _161
REMARK   66  A    between atoms: _160  and  _163
REMARK   67  A    between atoms: _163  and  _164
REMARK   68  A    between atoms: _167  and  _169
REMARK   69  A    between atoms: _169  and  _170
REMARK   70  A    between atoms: _169  and  _172
REMARK   71  A    between atoms: _172  and  _173
REMARK   72  A    between atoms: _175  and  _177
REMARK   73  A    between atoms: _177  and  _178
REMARK   74  A    between atoms: _177  and  _180
REMARK   75  A    between atoms: _180  and  _181
REMARK   76  A    between atoms: _184  and  _186
REMARK   77  A    between atoms: _186  and  _187
REMARK   78  A    between atoms: _186  and  _189
REMARK   79  A    between atoms: _189  and  _190
REMARK   80  A    between atoms: _195  and  _196
REMARK   81  A    between atoms: _198  and  _200
REMARK   82  A    between atoms: _200  and  _201
REMARK   83  A    between atoms: _204  and  _206
REMARK   84  A    between atoms: _206  and  _207
REMARK   85  A    between atoms: _206  and  _209
REMARK   86  A    between atoms: _209  and  _210
REMARK   87  A    between atoms: _212  and  _214
REMARK   88  A    between atoms: _214  and  _215
REMARK   89  A    between atoms: _217  and  _219
REMARK   90  A    between atoms: _219  and  _220
REMARK   91  A    between atoms: _219  and  _222
REMARK   92  A    between atoms: _222  and  _223
REMARK   93  A    between atoms: _223  and  _224
REMARK   94  A    between atoms: _224  and  _225
REMARK   95  A    between atoms: _234  and  _236
REMARK   96  A    between atoms: _236  and  _237
REMARK   97  A    between atoms: _236  and  _239
REMARK   98  A    between atoms: _239  and  _240
REMARK   99  A    between atoms: _243  and  _245
REMARK  100  A    between atoms: _245  and  _246
REMARK  101  A    between atoms: _245  and  _248
REMARK  102  A    between atoms: _248  and  _249
REMARK  103  A    between atoms: _252  and  _254
REMARK  104  A    between atoms: _254  and  _255
REMARK  105  A    between atoms: _254  and  _257
REMARK  106  A    between atoms: _261  and  _262
REMARK  107  A    between atoms: _267  and  _269
REMARK  108  A    between atoms: _269  and  _270
REMARK  109  A    between atoms: _269  and  _272
REMARK  110  A    between atoms: _272  and  _273
REMARK  111  A    between atoms: _276  and  _278
REMARK  112  A    between atoms: _278  and  _279
REMARK  113  A    between atoms: _278  and  _281
REMARK  114  A    between atoms: _281  and  _282
REMARK  115  A    between atoms: _287  and  _288
REMARK  116  A    between atoms: _290  and  _292
REMARK  117  A    between atoms: _292  and  _293
REMARK  118  A    between atoms: _292  and  _295
REMARK  119  A    between atoms: _295  and  _296
REMARK  120  A    between atoms: _296  and  _297
REMARK  121  A    between atoms: _300  and  _302
REMARK  122  A    between atoms: _302  and  _303
REMARK  123  A    between atoms: _305  and  _307
REMARK  124  A    between atoms: _307  and  _308
REMARK  125  A    between atoms: _307  and  _310
REMARK  126  A    between atoms: _310  and  _311
REMARK  127  A    between atoms: _316  and  _317
REMARK  128  A    between atoms: _319  and  _321
REMARK  129  A    between atoms: _321  and  _322
REMARK  130  A    between atoms: _325  and  _327
REMARK  131  A    between atoms: _327  and  _328
REMARK  132  A    between atoms: _327  and  _330
REMARK  133  A    between atoms: _330  and  _331
REMARK  134  A    between atoms: _335  and  _336
REMARK  135  A    between atoms: _341  and  _343
REMARK  136  A    between atoms: _343  and  _344
REMARK  137  A    between atoms: _343  and  _346
REMARK  138  A    between atoms: _346  and  _347
REMARK  139  A    between atoms: _352  and  _354
REMARK  140  A    between atoms: _354  and  _355
REMARK  141  A    between atoms: _358  and  _360
REMARK  142  A    between atoms: _360  and  _361
REMARK  143  A    between atoms: _360  and  _363
REMARK  144  A    between atoms: _363  and  _364
REMARK  145  A    between atoms: _367  and  _369
REMARK  146  A    between atoms: _369  and  _370
REMARK  147  A    between atoms: _369  and  _372
REMARK  148  A    between atoms: _372  and  _373
REMARK  149  A    between atoms: _376  and  _378
REMARK  150  A    between atoms: _378  and  _379
REMARK  151  A    between atoms: _381  and  _383
REMARK  152  A    between atoms: _383  and  _384
REMARK  153  A    between atoms: _386  and  _388
REMARK  154  A    between atoms: _388  and  _389
REMARK  155  A    between atoms: _388  and  _391
REMARK  156  A    between atoms: _391  and  _392
REMARK  157  A    between atoms: _394  and  _396
REMARK  158  A    between atoms: _396  and  _397
REMARK  159  A    between atoms: _396  and  _399
REMARK  160  A    between atoms: _399  and  _400
REMARK  161  A    between atoms: _403  and  _405
REMARK  162  A    between atoms: _405  and  _406
REMARK  163  A    between atoms: _405  and  _408
REMARK  164  A    between atoms: _408  and  _409
REMARK  165  A    between atoms: _412  and  _414
REMARK  166  A    between atoms: _414  and  _415
REMARK  167  A    between atoms: _418  and  _420
REMARK  168  A    between atoms: _420  and  _421
REMARK  169  A    between atoms: _420  and  _423
REMARK  170  A    between atoms: _423  and  _424
REMARK  171  A    between atoms: _426  and  _428
REMARK  172  A    between atoms: _428  and  _429
REMARK  173  A    between atoms: _428  and  _431
REMARK  174  A    between atoms: _431  and  _432
REMARK  175  A    between atoms: _435  and  _437
REMARK  176  A    between atoms: _437  and  _438
REMARK  177  A    between atoms: _437  and  _440
REMARK  178  A    between atoms: _440  and  _441
REMARK  179  A    between atoms: _443  and  _445
REMARK  180  A    between atoms: _445  and  _446
REMARK  181  A    between atoms: _445  and  _448
REMARK  182  A    between atoms: _448  and  _449
REMARK  183  A    between atoms: _452  and  _454
REMARK  184  A    between atoms: _454  and  _455
REMARK  185  A    between atoms: _454  and  _457
REMARK  186  A    between atoms: _457  and  _458
REMARK  187  A    between atoms: _464  and  _466
REMARK  188  A    between atoms: _466  and  _467
REMARK  189  A    between atoms: _466  and  _469
REMARK  190  A    between atoms: _469  and  _470
REMARK  191  A    between atoms: _470  and  _471
REMARK  192  A    between atoms: _476  and  _478
REMARK  193  A    between atoms: _478  and  _479
REMARK  194  A    between atoms: _478  and  _481
REMARK  195  A    between atoms: _481  and  _482
REMARK  196  A    between atoms: _482  and  _483
REMARK  197  A    between atoms: _488  and  _490
REMARK  198  A    between atoms: _490  and  _491
REMARK  199  A    between atoms: _490  and  _493
REMARK  200  A    between atoms: _493  and  _494
REMARK  201  A    between atoms: _494  and  _495
REMARK  202  A    between atoms: _497  and  _499
REMARK  203  A    between atoms: _499  and  _500
REMARK  204  A    between atoms: _499  and  _502
REMARK  205  A    between atoms: _502  and  _503
REMARK                            x       y       z     vdW  Elec       q    Type
REMARK                         _______ _______ _______ _____ _____    ______ ____
ROOT
ATOM      1  O   HOH     1      12.873 -22.078  37.547  0.00  0.00    +0.000 OA
ENDROOT
TORSDOF 0
REMARK  Name = ../refined-set-2016/2fxu/2fxu_pocket.pdb
REMARK  205 active torsions:
REMARK  status: ('A' for Active; 'I' for Inactive)
REMARK    1  A    between atoms: _1  and  _3
REMARK    2  A    between atoms: _3  and  _4
REMARK    3  A    between atoms: _3  and  _6
REMARK    4  A    between atoms: _6  and  _7
REMARK    5  A    between atoms: _10  and  _12
REMARK    6  A    between atoms: _12  and  _13
REMARK    7  A    between atoms: _12  and  _15
REMARK    8  A    between atoms: _15  and  _16
REMARK    9  A    between atoms: _19  and  _21
REMARK   10  A    between atoms: _21  and  _22
REMARK   11  A    between atoms: _21  and  _24
REMARK   12  A    between atoms: _24  and  _25
REMARK   13  A    between atoms: _28  and  _30
REMARK   14  A    between atoms: _30  and  _31
REMARK   15  A    between atoms: _30  and  _33
REMARK   16  A    between atoms: _33  and  _34
REMARK   17  A    between atoms: _34  and  _35
REMARK   18  A    between atoms: _39  and  _40
REMARK   19  A    between atoms: _45  and  _47
REMARK   20  A    between atoms: _47  and  _48
REMARK   21  A    between atoms: _47  and  _50
REMARK   22  A    between atoms: _50  and  _51
REMARK   23  A    between atoms: _54  and  _56
REMARK   24  A    between atoms: _56  and  _57
REMARK   25  A    between atoms: _56  and  _59
REMARK   26  A    between atoms: _59  and  _60
REMARK   27  A    between atoms: _65  and  _67
REMARK   28  A    between atoms: _67  and  _68
REMARK   29  A    between atoms: _67  and  _70
REMARK   30  A    between atoms: _70  and  _71
REMARK   31  A    between atoms: _71  and  _72
REMARK   32  A    between atoms: _72  and  _73
REMARK   33  A    between atoms: _73  and  _74
REMARK   34  A    between atoms: _78  and  _80
REMARK   35  A    between atoms: _80  and  _81
REMARK   36  A    between atoms: _80  and  _83
REMARK   37  A    between atoms: _83  and  _84
REMARK   38  A    between atoms: _84  and  _85
REMARK   39  A    between atoms: _85  and  _86
REMARK   40  A    between atoms: _95  and  _97
REMARK   41  A    between atoms: _97  and  _98
REMARK   42  A    between atoms: _97  and  _100
REMARK   43  A    between atoms: _100  and  _101
REMARK   44  A    between atoms: _106  and  _107
REMARK   45  A    between atoms: _109  and  _111
REMARK   46  A    between atoms: _111  and  _112
REMARK   47  A    between atoms: _111  and  _114
REMARK   48  A    between atoms: _117  and  _119
REMARK   49  A    between atoms: _119  and  _120
REMARK   50  A    between atoms: _123  and  _125
REMARK   51  A    between atoms: _125  and  _126
REMARK   52  A    between atoms: _125  and  _128
REMARK   53  A    between atoms: _128  and  _129
REMARK   54  A    between atoms: _132  and  _134
REMARK   55  A    between atoms: _134  and  _135
REMARK   56  A    between atoms: _134  and  _137
REMARK   57  A    between atoms: _137  and  _138
REMARK   58  A    between atoms: _138  and  _139
REMARK   59  A    between atoms: _144  and  _146
REMARK   60  A    between atoms: _146  and  _147
REMARK   61  A    between atoms: _150  and  _152
REMARK   62  A    between atoms: _152  and  _153
REMARK   63  A    between atoms: _152  and  _155
REMARK   64  A    between atoms: _158  and  _160
REMARK   65  A    between atoms: _160  and  _161
REMARK   66  A    between atoms: _160  and  _163
REMARK   67  A    between atoms: _163  and  _164
REMARK   68  A    between atoms: _167  and  _169
REMARK   69  A    between atoms: _169  and  _170
REMARK   70  A    between atoms: _169  and  _172
REMARK   71  A    between atoms: _172  and  _173
REMARK   72  A    between atoms: _175  and  _177
REMARK   73  A    between atoms: _177  and  _178
REMARK   74  A    between atoms: _177  and  _180
REMARK   75  A    between atoms: _180  and  _181
REMARK   76  A    between atoms: _184  and  _186
REMARK   77  A    between atoms: _186  and  _187
REMARK   78  A    between atoms: _186  and  _189
REMARK   79  A    between atoms: _189  and  _190
REMARK   80  A    between atoms: _195  and  _196
REMARK   81  A    between atoms: _198  and  _200
REMARK   82  A    between atoms: _200  and  _201
REMARK   83  A    between atoms: _204  and  _206
REMARK   84  A    between atoms: _206  and  _207
REMARK   85  A    between atoms: _206  and  _209
REMARK   86  A    between atoms: _209  and  _210
REMARK   87  A    between atoms: _212  and  _214
REMARK   88  A    between atoms: _214  and  _215
REMARK   89  A    between atoms: _217  and  _219
REMARK   90  A    between atoms: _219  and  _220
REMARK   91  A    between atoms: _219  and  _222
REMARK   92  A    between atoms: _222  and  _223
REMARK   93  A    between atoms: _223  and  _224
REMARK   94  A    between atoms: _224  and  _225
REMARK   95  A    between atoms: _234  and  _236
REMARK   96  A    between atoms: _236  and  _237
REMARK   97  A    between atoms: _236  and  _239
REMARK   98  A    between atoms: _239  and  _240
REMARK   99  A    between atoms: _243  and  _245
REMARK  100  A    between atoms: _245  and  _246
REMARK  101  A    between atoms: _245  and  _248
REMARK  102  A    between atoms: _248  and  _249
REMARK  103  A    between atoms: _252  and  _254
REMARK  104  A    between atoms: _254  and  _255
REMARK  105  A    between atoms: _254  and  _257
REMARK  106  A    between atoms: _261  and  _262
REMARK  107  A    between atoms: _267  and  _269
REMARK  108  A    between atoms: _269  and  _270
REMARK  109  A    between atoms: _269  and  _272
REMARK  110  A    between atoms: _272  and  _273
REMARK  111  A    between atoms: _276  and  _278
REMARK  112  A    between atoms: _278  and  _279
REMARK  113  A    between atoms: _278  and  _281
REMARK  114  A    between atoms: _281  and  _282
REMARK  115  A    between atoms: _287  and  _288
REMARK  116  A    between atoms: _290  and  _292
REMARK  117  A    between atoms: _292  and  _293
REMARK  118  A    between atoms: _292  and  _295
REMARK  119  A    between atoms: _295  and  _296
REMARK  120  A    between atoms: _296  and  _297
REMARK  121  A    between atoms: _300  and  _302
REMARK  122  A    between atoms: _302  and  _303
REMARK  123  A    between atoms: _305  and  _307
REMARK  124  A    between atoms: _307  and  _308
REMARK  125  A    between atoms: _307  and  _310
REMARK  126  A    between atoms: _310  and  _311
REMARK  127  A    between atoms: _316  and  _317
REMARK  128  A    between atoms: _319  and  _321
REMARK  129  A    between atoms: _321  and  _322
REMARK  130  A    between atoms: _325  and  _327
REMARK  131  A    between atoms: _327  and  _328
REMARK  132  A    between atoms: _327  and  _330
REMARK  133  A    between atoms: _330  and  _331
REMARK  134  A    between atoms: _335  and  _336
REMARK  135  A    between atoms: _341  and  _343
REMARK  136  A    between atoms: _343  and  _344
REMARK  137  A    between atoms: _343  and  _346
REMARK  138  A    between atoms: _346  and  _347
REMARK  139  A    between atoms: _352  and  _354
REMARK  140  A    between atoms: _354  and  _355
REMARK  141  A    between atoms: _358  and  _360
REMARK  142  A    between atoms: _360  and  _361
REMARK  143  A    between atoms: _360  and  _363
REMARK  144  A    between atoms: _363  and  _364
REMARK  145  A    between atoms: _367  and  _369
REMARK  146  A    between atoms: _369  and  _370
REMARK  147  A    between atoms: _369  and  _372
REMARK  148  A    between atoms: _372  and  _373
REMARK  149  A    between atoms: _376  and  _378
REMARK  150  A    between atoms: _378  and  _379
REMARK  151  A    between atoms: _381  and  _383
REMARK  152  A    between atoms: _383  and  _384
REMARK  153  A    between atoms: _386  and  _388
REMARK  154  A    between atoms: _388  and  _389
REMARK  155  A    between atoms: _388  and  _391
REMARK  156  A    between atoms: _391  and  _392
REMARK  157  A    between atoms: _394  and  _396
REMARK  158  A    between atoms: _396  and  _397
REMARK  159  A    between atoms: _396  and  _399
REMARK  160  A    between atoms: _399  and  _400
REMARK  161  A    between atoms: _403  and  _405
REMARK  162  A    between atoms: _405  and  _406
REMARK  163  A    between atoms: _405  and  _408
REMARK  164  A    between atoms: _408  and  _409
REMARK  165  A    between atoms: _412  and  _414
REMARK  166  A    between atoms: _414  and  _415
REMARK  167  A    between atoms: _418  and  _420
REMARK  168  A    between atoms: _420  and  _421
REMARK  169  A    between atoms: _420  and  _423
REMARK  170  A    between atoms: _423  and  _424
REMARK  171  A    between atoms: _426  and  _428
REMARK  172  A    between atoms: _428  and  _429
REMARK  173  A    between atoms: _428  and  _431
REMARK  174  A    between atoms: _431  and  _432
REMARK  175  A    between atoms: _435  and  _437
REMARK  176  A    between atoms: _437  and  _438
REMARK  177  A    between atoms: _437  and  _440
REMARK  178  A    between atoms: _440  and  _441
REMARK  179  A    between atoms: _443  and  _445
REMARK  180  A    between atoms: _445  and  _446
REMARK  181  A    between atoms: _445  and  _448
REMARK  182  A    between atoms: _448  and  _449
REMARK  183  A    between atoms: _452  and  _454
REMARK  184  A    between atoms: _454  and  _455
REMARK  185  A    between atoms: _454  and  _457
REMARK  186  A    between atoms: _457  and  _458
REMARK  187  A    between atoms: _464  and  _466
REMARK  188  A    between atoms: _466  and  _467
REMARK  189  A    between atoms: _466  and  _469
REMARK  190  A    between atoms: _469  and  _470
REMARK  191  A    between atoms: _470  and  _471
REMARK  192  A    between atoms: _476  and  _478
REMARK  193  A    between atoms: _478  and  _479
REMARK  194  A    between atoms: _478  and  _481
REMARK  195  A    between atoms: _481  and  _482
REMARK  196  A    between atoms: _482  and  _483
REMARK  197  A    between atoms: _488  and  _490
REMARK  198  A    between atoms: _490  and  _491
REMARK  199  A    between atoms: _490  and  _493
REMARK  200  A    between atoms: _493  and  _494
REMARK  201  A    between atoms: _494  and  _495
REMARK  202  A    between atoms: _497  and  _499
REMARK  203  A    between atoms: _499  and  _500
REMARK  204  A    between atoms: _499  and  _502
REMARK  205  A    between atoms: _502  and  _503
REMARK                            x       y       z     vdW  Elec       q    Type
REMARK                         _______ _______ _______ _____ _____    ______ ____
ROOT
ATOM      1  O   HOH     1      13.908 -23.940  34.249  0.00  0.00    +0.000 OA
ENDROOT
TORSDOF 0
REMARK  Name = ../refined-set-2016/2fxu/2fxu_pocket.pdb
REMARK  205 active torsions:
REMARK  status: ('A' for Active; 'I' for Inactive)
REMARK    1  A    between atoms: _1  and  _3
REMARK    2  A    between atoms: _3  and  _4
REMARK    3  A    between atoms: _3  and  _6
REMARK    4  A    between atoms: _6  and  _7
REMARK    5  A    between atoms: _10  and  _12
REMARK    6  A    between atoms: _12  and  _13
REMARK    7  A    between atoms: _12  and  _15
REMARK    8  A    between atoms: _15  and  _16
REMARK    9  A    between atoms: _19  and  _21
REMARK   10  A    between atoms: _21  and  _22
REMARK   11  A    between atoms: _21  and  _24
REMARK   12  A    between atoms: _24  and  _25
REMARK   13  A    between atoms: _28  and  _30
REMARK   14  A    between atoms: _30  and  _31
REMARK   15  A    between atoms: _30  and  _33
REMARK   16  A    between atoms: _33  and  _34
REMARK   17  A    between atoms: _34  and  _35
REMARK   18  A    between atoms: _39  and  _40
REMARK   19  A    between atoms: _45  and  _47
REMARK   20  A    between atoms: _47  and  _48
REMARK   21  A    between atoms: _47  and  _50
REMARK   22  A    between atoms: _50  and  _51
REMARK   23  A    between atoms: _54  and  _56
REMARK   24  A    between atoms: _56  and  _57
REMARK   25  A    between atoms: _56  and  _59
REMARK   26  A    between atoms: _59  and  _60
REMARK   27  A    between atoms: _65  and  _67
REMARK   28  A    between atoms: _67  and  _68
REMARK   29  A    between atoms: _67  and  _70
REMARK   30  A    between atoms: _70  and  _71
REMARK   31  A    between atoms: _71  and  _72
REMARK   32  A    between atoms: _72  and  _73
REMARK   33  A    between atoms: _73  and  _74
REMARK   34  A    between atoms: _78  and  _80
REMARK   35  A    between atoms: _80  and  _81
REMARK   36  A    between atoms: _80  and  _83
REMARK   37  A    between atoms: _83  and  _84
REMARK   38  A    between atoms: _84  and  _85
REMARK   39  A    between atoms: _85  and  _86
REMARK   40  A    between atoms: _95  and  _97
REMARK   41  A    between atoms: _97  and  _98
REMARK   42  A    between atoms: _97  and  _100
REMARK   43  A    between atoms: _100  and  _101
REMARK   44  A    between atoms: _106  and  _107
REMARK   45  A    between atoms: _109  and  _111
REMARK   46  A    between atoms: _111  and  _112
REMARK   47  A    between atoms: _111  and  _114
REMARK   48  A    between atoms: _117  and  _119
REMARK   49  A    between atoms: _119  and  _120
REMARK   50  A    between atoms: _123  and  _125
REMARK   51  A    between atoms: _125  and  _126
REMARK   52  A    between atoms: _125  and  _128
REMARK   53  A    between atoms: _128  and  _129
REMARK   54  A    between atoms: _132  and  _134
REMARK   55  A    between atoms: _134  and  _135
REMARK   56  A    between atoms: _134  and  _137
REMARK   57  A    between atoms: _137  and  _138
REMARK   58  A    between atoms: _138  and  _139
REMARK   59  A    between atoms: _144  and  _146
REMARK   60  A    between atoms: _146  and  _147
REMARK   61  A    between atoms: _150  and  _152
REMARK   62  A    between atoms: _152  and  _153
REMARK   63  A    between atoms: _152  and  _155
REMARK   64  A    between atoms: _158  and  _160
REMARK   65  A    between atoms: _160  and  _161
REMARK   66  A    between atoms: _160  and  _163
REMARK   67  A    between atoms: _163  and  _164
REMARK   68  A    between atoms: _167  and  _169
REMARK   69  A    between atoms: _169  and  _170
REMARK   70  A    between atoms: _169  and  _172
REMARK   71  A    between atoms: _172  and  _173
REMARK   72  A    between atoms: _175  and  _177
REMARK   73  A    between atoms: _177  and  _178
REMARK   74  A    between atoms: _177  and  _180
REMARK   75  A    between atoms: _180  and  _181
REMARK   76  A    between atoms: _184  and  _186
REMARK   77  A    between atoms: _186  and  _187
REMARK   78  A    between atoms: _186  and  _189
REMARK   79  A    between atoms: _189  and  _190
REMARK   80  A    between atoms: _195  and  _196
REMARK   81  A    between atoms: _198  and  _200
REMARK   82  A    between atoms: _200  and  _201
REMARK   83  A    between atoms: _204  and  _206
REMARK   84  A    between atoms: _206  and  _207
REMARK   85  A    between atoms: _206  and  _209
REMARK   86  A    between atoms: _209  and  _210
REMARK   87  A    between atoms: _212  and  _214
REMARK   88  A    between atoms: _214  and  _215
REMARK   89  A    between atoms: _217  and  _219
REMARK   90  A    between atoms: _219  and  _220
REMARK   91  A    between atoms: _219  and  _222
REMARK   92  A    between atoms: _222  and  _223
REMARK   93  A    between atoms: _223  and  _224
REMARK   94  A    between atoms: _224  and  _225
REMARK   95  A    between atoms: _234  and  _236
REMARK   96  A    between atoms: _236  and  _237
REMARK   97  A    between atoms: _236  and  _239
REMARK   98  A    between atoms: _239  and  _240
REMARK   99  A    between atoms: _243  and  _245
REMARK  100  A    between atoms: _245  and  _246
REMARK  101  A    between atoms: _245  and  _248
REMARK  102  A    between atoms: _248  and  _249
REMARK  103  A    between atoms: _252  and  _254
REMARK  104  A    between atoms: _254  and  _255
REMARK  105  A    between atoms: _254  and  _257
REMARK  106  A    between atoms: _261  and  _262
REMARK  107  A    between atoms: _267  and  _269
REMARK  108  A    between atoms: _269  and  _270
REMARK  109  A    between atoms: _269  and  _272
REMARK  110  A    between atoms: _272  and  _273
REMARK  111  A    between atoms: _276  and  _278
REMARK  112  A    between atoms: _278  and  _279
REMARK  113  A    between atoms: _278  and  _281
REMARK  114  A    between atoms: _281  and  _282
REMARK  115  A    between atoms: _287  and  _288
REMARK  116  A    between atoms: _290  and  _292
REMARK  117  A    between atoms: _292  and  _293
REMARK  118  A    between atoms: _292  and  _295
REMARK  119  A    between atoms: _295  and  _296
REMARK  120  A    between atoms: _296  and  _297
REMARK  121  A    between atoms: _300  and  _302
REMARK  122  A    between atoms: _302  and  _303
REMARK  123  A    between atoms: _305  and  _307
REMARK  124  A    between atoms: _307  and  _308
REMARK  125  A    between atoms: _307  and  _310
REMARK  126  A    between atoms: _310  and  _311
REMARK  127  A    between atoms: _316  and  _317
REMARK  128  A    between atoms: _319  and  _321
REMARK  129  A    between atoms: _321  and  _322
REMARK  130  A    between atoms: _325  and  _327
REMARK  131  A    between atoms: _327  and  _328
REMARK  132  A    between atoms: _327  and  _330
REMARK  133  A    between atoms: _330  and  _331
REMARK  134  A    between atoms: _335  and  _336
REMARK  135  A    between atoms: _341  and  _343
REMARK  136  A    between atoms: _343  and  _344
REMARK  137  A    between atoms: _343  and  _346
REMARK  138  A    between atoms: _346  and  _347
REMARK  139  A    between atoms: _352  and  _354
REMARK  140  A    between atoms: _354  and  _355
REMARK  141  A    between atoms: _358  and  _360
REMARK  142  A    between atoms: _360  and  _361
REMARK  143  A    between atoms: _360  and  _363
REMARK  144  A    between atoms: _363  and  _364
REMARK  145  A    between atoms: _367  and  _369
REMARK  146  A    between atoms: _369  and  _370
REMARK  147  A    between atoms: _369  and  _372
REMARK  148  A    between atoms: _372  and  _373
REMARK  149  A    between atoms: _376  and  _378
REMARK  150  A    between atoms: _378  and  _379
REMARK  151  A    between atoms: _381  and  _383
REMARK  152  A    between atoms: _383  and  _384
REMARK  153  A    between atoms: _386  and  _388
REMARK  154  A    between atoms: _388  and  _389
REMARK  155  A    between atoms: _388  and  _391
REMARK  156  A    between atoms: _391  and  _392
REMARK  157  A    between atoms: _394  and  _396
REMARK  158  A    between atoms: _396  and  _397
REMARK  159  A    between atoms: _396  and  _399
REMARK  160  A    between atoms: _399  and  _400
REMARK  161  A    between atoms: _403  and  _405
REMARK  162  A    between atoms: _405  and  _406
REMARK  163  A    between atoms: _405  and  _408
REMARK  164  A    between atoms: _408  and  _409
REMARK  165  A    between atoms: _412  and  _414
REMARK  166  A    between atoms: _414  and  _415
REMARK  167  A    between atoms: _418  and  _420
REMARK  168  A    between atoms: _420  and  _421
REMARK  169  A    between atoms: _420  and  _423
REMARK  170  A    between atoms: _423  and  _424
REMARK  171  A    between atoms: _426  and  _428
REMARK  172  A    between atoms: _428  and  _429
REMARK  173  A    between atoms: _428  and  _431
REMARK  174  A    between atoms: _431  and  _432
REMARK  175  A    between atoms: _435  and  _437
REMARK  176  A    between atoms: _437  and  _438
REMARK  177  A    between atoms: _437  and  _440
REMARK  178  A    between atoms: _440  and  _441
REMARK  179  A    between atoms: _443  and  _445
REMARK  180  A    between atoms: _445  and  _446
REMARK  181  A    between atoms: _445  and  _448
REMARK  182  A    between atoms: _448  and  _449
REMARK  183  A    between atoms: _452  and  _454
REMARK  184  A    between atoms: _454  and  _455
REMARK  185  A    between atoms: _454  and  _457
REMARK  186  A    between atoms: _457  and  _458
REMARK  187  A    between atoms: _464  and  _466
REMARK  188  A    between atoms: _466  and  _467
REMARK  189  A    between atoms: _466  and  _469
REMARK  190  A    between atoms: _469  and  _470
REMARK  191  A    between atoms: _470  and  _471
REMARK  192  A    between atoms: _476  and  _478
REMARK  193  A    between atoms: _478  and  _479
REMARK  194  A    between atoms: _478  and  _481
REMARK  195  A    between atoms: _481  and  _482
REMARK  196  A    between atoms: _482  and  _483
REMARK  197  A    between atoms: _488  and  _490
REMARK  198  A    between atoms: _490  and  _491
REMARK  199  A    between atoms: _490  and  _493
REMARK  200  A    between atoms: _493  and  _494
REMARK  201  A    between atoms: _494  and  _495
REMARK  202  A    between atoms: _497  and  _499
REMARK  203  A    between atoms: _499  and  _500
REMARK  204  A    between atoms: _499  and  _502
REMARK  205  A    between atoms: _502  and  _503
REMARK                            x       y       z     vdW  Elec       q    Type
REMARK                         _______ _______ _______ _____ _____    ______ ____
ROOT
ATOM      1  O   HOH     1      22.339 -12.802  41.034  0.00  0.00    +0.000 OA
ENDROOT
TORSDOF 0
