REMARK  Name = ../refined-set-2016/1fkn/1fkn_pocket.pdb
REMARK  286 active torsions:
REMARK  status: ('A' for Active; 'I' for Inactive)
REMARK    1  A    between atoms: _1  and  _3
REMARK    2  A    between atoms: _3  and  _4
REMARK    3  A    between atoms: _3  and  _6
REMARK    4  A    between atoms: _6  and  _7
REMARK    5  A    between atoms: _7  and  _8
REMARK    6  A    between atoms: _8  and  _9
REMARK    7  A    between atoms: _9  and  _10
REMARK    8  A    between atoms: _14  and  _16
REMARK    9  A    between atoms: _16  and  _17
REMARK   10  A    between atoms: _16  and  _19
REMARK   11  A    between atoms: _19  and  _20
REMARK   12  A    between atoms: _22  and  _24
REMARK   13  A    between atoms: _24  and  _25
REMARK   14  A    between atoms: _27  and  _29
REMARK   15  A    between atoms: _29  and  _30
REMARK   16  A    between atoms: _29  and  _32
REMARK   17  A    between atoms: _32  and  _33
REMARK   18  A    between atoms: _33  and  _34
REMARK   19  A    between atoms: _39  and  _41
REMARK   20  A    between atoms: _41  and  _42
REMARK   21  A    between atoms: _44  and  _46
REMARK   22  A    between atoms: _46  and  _47
REMARK   23  A    between atoms: _46  and  _49
REMARK   24  A    between atoms: _49  and  _50
REMARK   25  A    between atoms: _55  and  _56
REMARK   26  A    between atoms: _58  and  _60
REMARK   27  A    between atoms: _60  and  _61
REMARK   28  A    between atoms: _60  and  _63
REMARK   29  A    between atoms: _63  and  _64
REMARK   30  A    between atoms: _67  and  _69
REMARK   31  A    between atoms: _69  and  _70
REMARK   32  A    between atoms: _69  and  _72
REMARK   33  A    between atoms: _75  and  _77
REMARK   34  A    between atoms: _77  and  _78
REMARK   35  A    between atoms: _77  and  _80
REMARK   36  A    between atoms: _80  and  _81
REMARK   37  A    between atoms: _84  and  _86
REMARK   38  A    between atoms: _86  and  _87
REMARK   39  A    between atoms: _86  and  _89
REMARK   40  A    between atoms: _89  and  _90
REMARK   41  A    between atoms: _93  and  _95
REMARK   42  A    between atoms: _95  and  _96
REMARK   43  A    between atoms: _98  and  _100
REMARK   44  A    between atoms: _100  and  _101
REMARK   45  A    between atoms: _100  and  _103
REMARK   46  A    between atoms: _103  and  _104
REMARK   47  A    between atoms: _106  and  _108
REMARK   48  A    between atoms: _108  and  _109
REMARK   49  A    between atoms: _108  and  _111
REMARK   50  A    between atoms: _111  and  _112
REMARK   51  A    between atoms: _114  and  _116
REMARK   52  A    between atoms: _116  and  _117
REMARK   53  A    between atoms: _116  and  _119
REMARK   54  A    between atoms: _119  and  _120
REMARK   55  A    between atoms: _125  and  _127
REMARK   56  A    between atoms: _127  and  _128
REMARK   57  A    between atoms: _127  and  _130
REMARK   58  A    between atoms: _130  and  _131
REMARK   59  A    between atoms: _136  and  _137
REMARK   60  A    between atoms: _139  and  _141
REMARK   61  A    between atoms: _141  and  _142
REMARK   62  A    between atoms: _141  and  _144
REMARK   63  A    between atoms: _148  and  _149
REMARK   64  A    between atoms: _154  and  _156
REMARK   65  A    between atoms: _156  and  _157
REMARK   66  A    between atoms: _156  and  _159
REMARK   67  A    between atoms: _159  and  _160
REMARK   68  A    between atoms: _165  and  _166
REMARK   69  A    between atoms: _168  and  _170
REMARK   70  A    between atoms: _170  and  _171
REMARK   71  A    between atoms: _170  and  _173
REMARK   72  A    between atoms: _173  and  _174
REMARK   73  A    between atoms: _177  and  _179
REMARK   74  A    between atoms: _179  and  _180
REMARK   75  A    between atoms: _179  and  _182
REMARK   76  A    between atoms: _182  and  _183
REMARK   77  A    between atoms: _183  and  _184
REMARK   78  A    between atoms: _189  and  _191
REMARK   79  A    between atoms: _191  and  _192
REMARK   80  A    between atoms: _194  and  _196
REMARK   81  A    between atoms: _196  and  _197
REMARK   82  A    between atoms: _196  and  _199
REMARK   83  A    between atoms: _199  and  _200
REMARK   84  A    between atoms: _200  and  _201
REMARK   85  A    between atoms: _201  and  _202
REMARK   86  A    between atoms: _202  and  _203
REMARK   87  A    between atoms: _207  and  _209
REMARK   88  A    between atoms: _209  and  _210
REMARK   89  A    between atoms: _209  and  _212
REMARK   90  A    between atoms: _212  and  _213
REMARK   91  A    between atoms: _223  and  _225
REMARK   92  A    between atoms: _225  and  _226
REMARK   93  A    between atoms: _225  and  _228
REMARK   94  A    between atoms: _228  and  _229
REMARK   95  A    between atoms: _232  and  _234
REMARK   96  A    between atoms: _234  and  _235
REMARK   97  A    between atoms: _234  and  _237
REMARK   98  A    between atoms: _237  and  _238
REMARK   99  A    between atoms: _238  and  _239
REMARK  100  A    between atoms: _239  and  _240
REMARK  101  A    between atoms: _240  and  _241
REMARK  102  A    between atoms: _245  and  _247
REMARK  103  A    between atoms: _247  and  _248
REMARK  104  A    between atoms: _247  and  _250
REMARK  105  A    between atoms: _250  and  _251
REMARK  106  A    between atoms: _257  and  _259
REMARK  107  A    between atoms: _259  and  _260
REMARK  108  A    between atoms: _259  and  _262
REMARK  109  A    between atoms: _262  and  _263
REMARK  110  A    between atoms: _269  and  _271
REMARK  111  A    between atoms: _271  and  _272
REMARK  112  A    between atoms: _271  and  _274
REMARK  113  A    between atoms: _274  and  _275
REMARK  114  A    between atoms: _278  and  _280
REMARK  115  A    between atoms: _280  and  _281
REMARK  116  A    between atoms: _280  and  _283
REMARK  117  A    between atoms: _283  and  _284
REMARK  118  A    between atoms: _286  and  _288
REMARK  119  A    between atoms: _288  and  _289
REMARK  120  A    between atoms: _288  and  _291
REMARK  121  A    between atoms: _291  and  _292
REMARK  122  A    between atoms: _302  and  _304
REMARK  123  A    between atoms: _304  and  _305
REMARK  124  A    between atoms: _307  and  _309
REMARK  125  A    between atoms: _309  and  _310
REMARK  126  A    between atoms: _309  and  _312
REMARK  127  A    between atoms: _312  and  _313
REMARK  128  A    between atoms: _316  and  _318
REMARK  129  A    between atoms: _318  and  _319
REMARK  130  A    between atoms: _318  and  _321
REMARK  131  A    between atoms: _321  and  _322
REMARK  132  A    between atoms: _325  and  _327
REMARK  133  A    between atoms: _327  and  _328
REMARK  134  A    between atoms: _330  and  _332
REMARK  135  A    between atoms: _332  and  _333
REMARK  136  A    between atoms: _332  and  _335
REMARK  137  A    between atoms: _335  and  _336
REMARK  138  A    between atoms: _339  and  _341
REMARK  139  A    between atoms: _341  and  _342
REMARK  140  A    between atoms: _345  and  _347
REMARK  141  A    between atoms: _347  and  _348
REMARK  142  A    between atoms: _347  and  _350
REMARK  143  A    between atoms: _350  and  _351
REMARK  144  A    between atoms: _356  and  _357
REMARK  145  A    between atoms: _359  and  _361
REMARK  146  A    between atoms: _361  and  _362
REMARK  147  A    between atoms: _361  and  _364
REMARK  148  A    between atoms: _364  and  _365
REMARK  149  A    between atoms: _368  and  _370
REMARK  150  A    between atoms: _370  and  _371
REMARK  151  A    between atoms: _374  and  _376
REMARK  152  A    between atoms: _376  and  _377
REMARK  153  A    between atoms: _376  and  _379
REMARK  154  A    between atoms: _379  and  _380
REMARK  155  A    between atoms: _380  and  _381
REMARK  156  A    between atoms: _381  and  _382
REMARK  157  A    between atoms: _391  and  _393
REMARK  158  A    between atoms: _393  and  _394
REMARK  159  A    between atoms: _393  and  _396
REMARK  160  A    between atoms: _396  and  _397
REMARK  161  A    between atoms: _407  and  _409
REMARK  162  A    between atoms: _409  and  _410
REMARK  163  A    between atoms: _409  and  _412
REMARK  164  A    between atoms: _412  and  _413
REMARK  165  A    between atoms: _418  and  _419
REMARK  166  A    between atoms: _421  and  _423
REMARK  167  A    between atoms: _423  and  _424
REMARK  168  A    between atoms: _423  and  _426
REMARK  169  A    between atoms: _426  and  _427
REMARK  170  A    between atoms: _430  and  _432
REMARK  171  A    between atoms: _432  and  _433
REMARK  172  A    between atoms: _432  and  _435
REMARK  173  A    between atoms: _435  and  _436
REMARK  174  A    between atoms: _436  and  _437
REMARK  175  A    between atoms: _437  and  _438
REMARK  176  A    between atoms: _438  and  _439
REMARK  177  A    between atoms: _443  and  _445
REMARK  178  A    between atoms: _445  and  _446
REMARK  179  A    between atoms: _445  and  _448
REMARK  180  A    between atoms: _448  and  _449
REMARK  181  A    between atoms: _452  and  _454
REMARK  182  A    between atoms: _454  and  _455
REMARK  183  A    between atoms: _454  and  _457
REMARK  184  A    between atoms: _460  and  _462
REMARK  185  A    between atoms: _462  and  _463
REMARK  186  A    between atoms: _462  and  _465
REMARK  187  A    between atoms: _465  and  _466
REMARK  188  A    between atoms: _469  and  _471
REMARK  189  A    between atoms: _471  and  _472
REMARK  190  A    between atoms: _471  and  _474
REMARK  191  A    between atoms: _474  and  _475
REMARK  192  A    between atoms: _477  and  _479
REMARK  193  A    between atoms: _479  and  _480
REMARK  194  A    between atoms: _482  and  _484
REMARK  195  A    between atoms: _484  and  _485
REMARK  196  A    between atoms: _484  and  _487
REMARK  197  A    between atoms: _487  and  _488
REMARK  198  A    between atoms: _491  and  _493
REMARK  199  A    between atoms: _493  and  _494
REMARK  200  A    between atoms: _493  and  _496
REMARK  201  A    between atoms: _496  and  _497
REMARK  202  A    between atoms: _500  and  _502
REMARK  203  A    between atoms: _502  and  _503
REMARK  204  A    between atoms: _502  and  _505
REMARK  205  A    between atoms: _505  and  _506
REMARK  206  A    between atoms: _511  and  _513
REMARK  207  A    between atoms: _513  and  _514
REMARK  208  A    between atoms: _513  and  _516
REMARK  209  A    between atoms: _516  and  _517
REMARK  210  A    between atoms: _520  and  _522
REMARK  211  A    between atoms: _522  and  _523
REMARK  212  A    between atoms: _522  and  _525
REMARK  213  A    between atoms: _525  and  _526
REMARK  214  A    between atoms: _526  and  _527
REMARK  215  A    between atoms: _527  and  _528
REMARK  216  A    between atoms: _537  and  _539
REMARK  217  A    between atoms: _539  and  _540
REMARK  218  A    between atoms: _539  and  _542
REMARK  219  A    between atoms: _542  and  _543
REMARK  220  A    between atoms: _546  and  _548
REMARK  221  A    between atoms: _548  and  _549
REMARK  222  A    between atoms: _551  and  _553
REMARK  223  A    between atoms: _553  and  _554
REMARK  224  A    between atoms: _553  and  _556
REMARK  225  A    between atoms: _556  and  _557
REMARK  226  A    between atoms: _557  and  _558
REMARK  227  A    between atoms: _561  and  _563
REMARK  228  A    between atoms: _563  and  _564
REMARK  229  A    between atoms: _563  and  _566
REMARK  230  A    between atoms: _566  and  _567
REMARK  231  A    between atoms: _567  and  _568
REMARK  232  A    between atoms: _568  and  _569
REMARK  233  A    between atoms: _578  and  _580
REMARK  234  A    between atoms: _580  and  _581
REMARK  235  A    between atoms: _580  and  _583
REMARK  236  A    between atoms: _583  and  _584
REMARK  237  A    between atoms: _584  and  _585
REMARK  238  A    between atoms: _585  and  _586
REMARK  239  A    between atoms: _586  and  _587
REMARK  240  A    between atoms: _591  and  _593
REMARK  241  A    between atoms: _593  and  _594
REMARK  242  A    between atoms: _593  and  _596
REMARK  243  A    between atoms: _596  and  _597
REMARK  244  A    between atoms: _603  and  _605
REMARK  245  A    between atoms: _605  and  _606
REMARK  246  A    between atoms: _609  and  _611
REMARK  247  A    between atoms: _611  and  _612
REMARK  248  A    between atoms: _611  and  _614
REMARK  249  A    between atoms: _614  and  _615
REMARK  250  A    between atoms: _618  and  _620
REMARK  251  A    between atoms: _620  and  _621
REMARK  252  A    between atoms: _620  and  _623
REMARK  253  A    between atoms: _623  and  _624
REMARK  254  A    between atoms: _626  and  _628
REMARK  255  A    between atoms: _628  and  _629
REMARK  256  A    between atoms: _628  and  _631
REMARK  257  A    between atoms: _631  and  _632
REMARK  258  A    between atoms: _632  and  _633
REMARK  259  A    between atoms: _638  and  _640
REMARK  260  A    between atoms: _640  and  _641
REMARK  261  A    between atoms: _640  and  _643
REMARK  262  A    between atoms: _643  and  _644
REMARK  263  A    between atoms: _646  and  _648
REMARK  264  A    between atoms: _648  and  _649
REMARK  265  A    between atoms: _648  and  _651
REMARK  266  A    between atoms: _651  and  _652
REMARK  267  A    between atoms: _654  and  _656
REMARK  268  A    between atoms: _656  and  _657
REMARK  269  A    between atoms: _656  and  _659
REMARK  270  A    between atoms: _659  and  _660
REMARK  271  A    between atoms: _663  and  _665
REMARK  272  A    between atoms: _665  and  _666
REMARK  273  A    between atoms: _668  and  _670
REMARK  274  A    between atoms: _670  and  _671
REMARK  275  A    between atoms: _670  and  _673
REMARK  276  A    between atoms: _673  and  _674
REMARK  277  A    between atoms: _677  and  _679
REMARK  278  A    between atoms: _679  and  _680
REMARK  279  A    between atoms: _679  and  _682
REMARK  280  A    between atoms: _685  and  _687
REMARK  281  A    between atoms: _687  and  _688
REMARK  282  A    between atoms: _690  and  _692
REMARK  283  A    between atoms: _692  and  _693
REMARK  284  A    between atoms: _696  and  _698
REMARK  285  A    between atoms: _698  and  _699
REMARK  286  A    between atoms: _698  and  _701
REMARK                            x       y       z     vdW  Elec       q    Type
REMARK                         _______ _______ _______ _____ _____    ______ ____
ROOT
ATOM      1  CA  GLN A   4      16.358   7.573  -2.667  0.00  0.00    +0.149 C 
ENDROOT
BRANCH   1   3
ATOM      2  C   GLY A   3      14.117   8.373  -2.066  0.00  0.00    +0.243 C 
ATOM      3  N   GLN A   4      15.440   8.416  -1.883  0.00  0.00    -0.297 N 
ATOM      4  H   GLN A   4      15.832   9.062  -1.168  0.00  0.00    +0.150 HD
ATOM      5  O   GLY A   3      13.561   7.612  -2.876  0.00  0.00    -0.273 OA
BRANCH   2   6
ATOM      6  CA  GLY A   3      13.272   9.292  -1.201  0.00  0.00    +0.176 C 
BRANCH   6   9
ATOM      7  C   SER A   2      14.074   8.901   1.056  0.00  0.00    +0.243 C 
ATOM      8  O   SER A   2      13.791   7.681   1.025  0.00  0.00    -0.273 OA
ATOM      9  N   GLY A   3      13.893   9.745   0.033  0.00  0.00    -0.295 N 
ATOM     10  H   GLY A   3      14.200  10.735   0.122  0.00  0.00    +0.150 HD
BRANCH   7  11
ATOM     11  CA  SER A   2      14.679   9.502   2.302  0.00  0.00    +0.178 C 
BRANCH  11  13
ATOM     12  C   LYS A   1      16.792  10.304   1.393  0.00  0.00    +0.238 C 
ATOM     13  N   SER A   2      15.706  10.533   2.119  0.00  0.00    -0.295 N 
ATOM     14  H   SER A   2      15.580  11.463   2.568  0.00  0.00    +0.150 HD
ATOM     15  O   LYS A   1      16.980   9.265   0.743  0.00  0.00    -0.274 OA
BRANCH  12  16
ATOM     16  CA  LYS A   1      17.840  11.396   1.385  0.00  0.00    +0.145 C 
BRANCH  16  17
ATOM     17  N   LYS A   1      19.050  10.735   0.878  0.00  0.00    -0.238 NA
ATOM     18  H   LYS A   1      18.967   9.826   0.379  0.00  0.00    +0.142 HD
ENDBRANCH  16  17
BRANCH  16  19
ATOM     19  CB  LYS A   1      17.448  12.581   0.476  0.00  0.00    +0.026 C 
BRANCH  19  20
ATOM     20  CG  LYS A   1      17.288  12.234  -0.998  0.00  0.00    -0.000 C 
BRANCH  20  21
ATOM     21  CD  LYS A   1      17.201  13.531  -1.844  0.00  0.00    -0.024 C 
BRANCH  21  22
ATOM     22  CE  LYS A   1      16.892  13.207  -3.321  0.00  0.00    -0.086 C 
BRANCH  22  23
ATOM     23  NZ  LYS A   1      16.444  14.388  -4.124  0.00  0.00    +0.380 N 
ATOM     24  HZ1 LYS A   1      15.575  14.780  -3.707  0.00  0.00    -0.089 HD
ATOM     25  HZ2 LYS A   1      17.190  15.113  -4.118  0.00  0.00    -0.089 HD
ATOM     26  HZ3 LYS A   1      16.257  14.089  -5.102  0.00  0.00    -0.089 HD
ENDBRANCH  22  23
ENDBRANCH  21  22
ENDBRANCH  20  21
ENDBRANCH  19  20
ENDBRANCH  16  19
ENDBRANCH  12  16
ENDBRANCH  11  13
BRANCH  11  27
ATOM     27  CB  SER A   2      13.564  10.032   3.210  0.00  0.00    +0.166 C 
BRANCH  27  28
ATOM     28  OG  SER A   2      12.929  11.157   2.626  0.00  0.00    -0.380 OA
ATOM     29  H   SER A   2      12.214  11.481   3.229  0.00  0.00    +0.211 HD
ENDBRANCH  27  28
ENDBRANCH  11  27
ENDBRANCH   7  11
ENDBRANCH   6   9
ENDBRANCH   2   6
ENDBRANCH   1   3
BRANCH   1  30
ATOM     30  C   GLN A   4      17.307   6.664  -1.858  0.00  0.00    +0.241 C 
ATOM     31  N   GLY A   5      17.205   6.722  -0.532  0.00  0.00    -0.295 N 
ATOM     32  H   GLY A   5      16.496   7.348  -0.100  0.00  0.00    +0.150 HD
ATOM     33  O   GLN A   4      18.109   5.925  -2.445  0.00  0.00    -0.273 OA
BRANCH  31  34
ATOM     34  CA  GLY A   5      18.068   5.925   0.319  0.00  0.00    +0.176 C 
BRANCH  34  35
ATOM     35  C   GLY A   5      19.325   6.646   0.784  0.00  0.00    +0.243 C 
ATOM     36  N   TYR A   6      19.899   6.148   1.877  0.00  0.00    -0.298 N 
ATOM     37  H   TYR A   6      19.449   5.346   2.362  0.00  0.00    +0.150 HD
ATOM     38  O   GLY A   5      19.781   7.634   0.155  0.00  0.00    -0.273 OA
BRANCH  36  39
ATOM     39  CA  TYR A   6      21.156   6.700   2.421  0.00  0.00    +0.141 C 
BRANCH  39  40
ATOM     40  C   TYR A   6      22.219   5.660   2.150  0.00  0.00    +0.227 C 
ATOM     41  O   TYR A   6      21.986   4.473   2.372  0.00  0.00    -0.286 OA
ENDBRANCH  39  40
BRANCH  39  42
ATOM     42  CB  TYR A   6      21.025   6.937   3.919  0.00  0.00    +0.054 C 
BRANCH  42  43
ATOM     43  CG  TYR A   6      20.150   8.126   4.197  0.00  0.00    -0.020 A 
ATOM     44  CD2 TYR A   6      20.723   9.388   4.364  0.00  0.00    -0.001 A 
ATOM     45  CE2 TYR A   6      19.950  10.500   4.629  0.00  0.00    +0.036 A 
ATOM     46  CZ  TYR A   6      18.578  10.373   4.729  0.00  0.00    +0.134 A 
ATOM     47  CE1 TYR A   6      17.963   9.132   4.560  0.00  0.00    +0.036 A 
ATOM     48  CD1 TYR A   6      18.758   8.006   4.291  0.00  0.00    -0.001 A 
BRANCH  46  49
ATOM     49  OH  TYR A   6      17.856  11.505   5.032  0.00  0.00    -0.506 OA
ATOM     50  HH  TYR A   6      16.893  11.279   5.074  0.00  0.00    +0.292 HD
ENDBRANCH  46  49
ENDBRANCH  42  43
ENDBRANCH  39  42
ENDBRANCH  36  39
ENDBRANCH  34  35
ENDBRANCH  31  34
ENDBRANCH   1  30
BRANCH   1  51
ATOM     51  CB  GLN A   4      17.196   8.473  -3.581  0.00  0.00    +0.039 C 
BRANCH  51  52
ATOM     52  CG  GLN A   4      16.333   9.396  -4.442  0.00  0.00    +0.087 C 
BRANCH  52  53
ATOM     53  CD  GLN A   4      17.148  10.144  -5.495  0.00  0.00    +0.219 C 
ATOM     54  OE1 GLN A   4      18.284  10.555  -5.248  0.00  0.00    -0.275 OA
ATOM     55  NE2 GLN A   4      16.558  10.343  -6.653  0.00  0.00    -0.329 N 
ATOM     56 HE21 GLN A   4      15.598   9.978  -6.817  0.00  0.00    +0.145 HD
ATOM     57 HE22 GLN A   4      17.051  10.866  -7.405  0.00  0.00    +0.145 HD
ENDBRANCH  52  53
ENDBRANCH  51  52
ENDBRANCH   1  51
TORSDOF 25
REMARK  Name = ../refined-set-2016/1fkn/1fkn_pocket.pdb
REMARK  286 active torsions:
REMARK  status: ('A' for Active; 'I' for Inactive)
REMARK    1  A    between atoms: _1  and  _3
REMARK    2  A    between atoms: _3  and  _4
REMARK    3  A    between atoms: _3  and  _6
REMARK    4  A    between atoms: _6  and  _7
REMARK    5  A    between atoms: _7  and  _8
REMARK    6  A    between atoms: _8  and  _9
REMARK    7  A    between atoms: _9  and  _10
REMARK    8  A    between atoms: _14  and  _16
REMARK    9  A    between atoms: _16  and  _17
REMARK   10  A    between atoms: _16  and  _19
REMARK   11  A    between atoms: _19  and  _20
REMARK   12  A    between atoms: _22  and  _24
REMARK   13  A    between atoms: _24  and  _25
REMARK   14  A    between atoms: _27  and  _29
REMARK   15  A    between atoms: _29  and  _30
REMARK   16  A    between atoms: _29  and  _32
REMARK   17  A    between atoms: _32  and  _33
REMARK   18  A    between atoms: _33  and  _34
REMARK   19  A    between atoms: _39  and  _41
REMARK   20  A    between atoms: _41  and  _42
REMARK   21  A    between atoms: _44  and  _46
REMARK   22  A    between atoms: _46  and  _47
REMARK   23  A    between atoms: _46  and  _49
REMARK   24  A    between atoms: _49  and  _50
REMARK   25  A    between atoms: _55  and  _56
REMARK   26  A    between atoms: _58  and  _60
REMARK   27  A    between atoms: _60  and  _61
REMARK   28  A    between atoms: _60  and  _63
REMARK   29  A    between atoms: _63  and  _64
REMARK   30  A    between atoms: _67  and  _69
REMARK   31  A    between atoms: _69  and  _70
REMARK   32  A    between atoms: _69  and  _72
REMARK   33  A    between atoms: _75  and  _77
REMARK   34  A    between atoms: _77  and  _78
REMARK   35  A    between atoms: _77  and  _80
REMARK   36  A    between atoms: _80  and  _81
REMARK   37  A    between atoms: _84  and  _86
REMARK   38  A    between atoms: _86  and  _87
REMARK   39  A    between atoms: _86  and  _89
REMARK   40  A    between atoms: _89  and  _90
REMARK   41  A    between atoms: _93  and  _95
REMARK   42  A    between atoms: _95  and  _96
REMARK   43  A    between atoms: _98  and  _100
REMARK   44  A    between atoms: _100  and  _101
REMARK   45  A    between atoms: _100  and  _103
REMARK   46  A    between atoms: _103  and  _104
REMARK   47  A    between atoms: _106  and  _108
REMARK   48  A    between atoms: _108  and  _109
REMARK   49  A    between atoms: _108  and  _111
REMARK   50  A    between atoms: _111  and  _112
REMARK   51  A    between atoms: _114  and  _116
REMARK   52  A    between atoms: _116  and  _117
REMARK   53  A    between atoms: _116  and  _119
REMARK   54  A    between atoms: _119  and  _120
REMARK   55  A    between atoms: _125  and  _127
REMARK   56  A    between atoms: _127  and  _128
REMARK   57  A    between atoms: _127  and  _130
REMARK   58  A    between atoms: _130  and  _131
REMARK   59  A    between atoms: _136  and  _137
REMARK   60  A    between atoms: _139  and  _141
REMARK   61  A    between atoms: _141  and  _142
REMARK   62  A    between atoms: _141  and  _144
REMARK   63  A    between atoms: _148  and  _149
REMARK   64  A    between atoms: _154  and  _156
REMARK   65  A    between atoms: _156  and  _157
REMARK   66  A    between atoms: _156  and  _159
REMARK   67  A    between atoms: _159  and  _160
REMARK   68  A    between atoms: _165  and  _166
REMARK   69  A    between atoms: _168  and  _170
REMARK   70  A    between atoms: _170  and  _171
REMARK   71  A    between atoms: _170  and  _173
REMARK   72  A    between atoms: _173  and  _174
REMARK   73  A    between atoms: _177  and  _179
REMARK   74  A    between atoms: _179  and  _180
REMARK   75  A    between atoms: _179  and  _182
REMARK   76  A    between atoms: _182  and  _183
REMARK   77  A    between atoms: _183  and  _184
REMARK   78  A    between atoms: _189  and  _191
REMARK   79  A    between atoms: _191  and  _192
REMARK   80  A    between atoms: _194  and  _196
REMARK   81  A    between atoms: _196  and  _197
REMARK   82  A    between atoms: _196  and  _199
REMARK   83  A    between atoms: _199  and  _200
REMARK   84  A    between atoms: _200  and  _201
REMARK   85  A    between atoms: _201  and  _202
REMARK   86  A    between atoms: _202  and  _203
REMARK   87  A    between atoms: _207  and  _209
REMARK   88  A    between atoms: _209  and  _210
REMARK   89  A    between atoms: _209  and  _212
REMARK   90  A    between atoms: _212  and  _213
REMARK   91  A    between atoms: _223  and  _225
REMARK   92  A    between atoms: _225  and  _226
REMARK   93  A    between atoms: _225  and  _228
REMARK   94  A    between atoms: _228  and  _229
REMARK   95  A    between atoms: _232  and  _234
REMARK   96  A    between atoms: _234  and  _235
REMARK   97  A    between atoms: _234  and  _237
REMARK   98  A    between atoms: _237  and  _238
REMARK   99  A    between atoms: _238  and  _239
REMARK  100  A    between atoms: _239  and  _240
REMARK  101  A    between atoms: _240  and  _241
REMARK  102  A    between atoms: _245  and  _247
REMARK  103  A    between atoms: _247  and  _248
REMARK  104  A    between atoms: _247  and  _250
REMARK  105  A    between atoms: _250  and  _251
REMARK  106  A    between atoms: _257  and  _259
REMARK  107  A    between atoms: _259  and  _260
REMARK  108  A    between atoms: _259  and  _262
REMARK  109  A    between atoms: _262  and  _263
REMARK  110  A    between atoms: _269  and  _271
REMARK  111  A    between atoms: _271  and  _272
REMARK  112  A    between atoms: _271  and  _274
REMARK  113  A    between atoms: _274  and  _275
REMARK  114  A    between atoms: _278  and  _280
REMARK  115  A    between atoms: _280  and  _281
REMARK  116  A    between atoms: _280  and  _283
REMARK  117  A    between atoms: _283  and  _284
REMARK  118  A    between atoms: _286  and  _288
REMARK  119  A    between atoms: _288  and  _289
REMARK  120  A    between atoms: _288  and  _291
REMARK  121  A    between atoms: _291  and  _292
REMARK  122  A    between atoms: _302  and  _304
REMARK  123  A    between atoms: _304  and  _305
REMARK  124  A    between atoms: _307  and  _309
REMARK  125  A    between atoms: _309  and  _310
REMARK  126  A    between atoms: _309  and  _312
REMARK  127  A    between atoms: _312  and  _313
REMARK  128  A    between atoms: _316  and  _318
REMARK  129  A    between atoms: _318  and  _319
REMARK  130  A    between atoms: _318  and  _321
REMARK  131  A    between atoms: _321  and  _322
REMARK  132  A    between atoms: _325  and  _327
REMARK  133  A    between atoms: _327  and  _328
REMARK  134  A    between atoms: _330  and  _332
REMARK  135  A    between atoms: _332  and  _333
REMARK  136  A    between atoms: _332  and  _335
REMARK  137  A    between atoms: _335  and  _336
REMARK  138  A    between atoms: _339  and  _341
REMARK  139  A    between atoms: _341  and  _342
REMARK  140  A    between atoms: _345  and  _347
REMARK  141  A    between atoms: _347  and  _348
REMARK  142  A    between atoms: _347  and  _350
REMARK  143  A    between atoms: _350  and  _351
REMARK  144  A    between atoms: _356  and  _357
REMARK  145  A    between atoms: _359  and  _361
REMARK  146  A    between atoms: _361  and  _362
REMARK  147  A    between atoms: _361  and  _364
REMARK  148  A    between atoms: _364  and  _365
REMARK  149  A    between atoms: _368  and  _370
REMARK  150  A    between atoms: _370  and  _371
REMARK  151  A    between atoms: _374  and  _376
REMARK  152  A    between atoms: _376  and  _377
REMARK  153  A    between atoms: _376  and  _379
REMARK  154  A    between atoms: _379  and  _380
REMARK  155  A    between atoms: _380  and  _381
REMARK  156  A    between atoms: _381  and  _382
REMARK  157  A    between atoms: _391  and  _393
REMARK  158  A    between atoms: _393  and  _394
REMARK  159  A    between atoms: _393  and  _396
REMARK  160  A    between atoms: _396  and  _397
REMARK  161  A    between atoms: _407  and  _409
REMARK  162  A    between atoms: _409  and  _410
REMARK  163  A    between atoms: _409  and  _412
REMARK  164  A    between atoms: _412  and  _413
REMARK  165  A    between atoms: _418  and  _419
REMARK  166  A    between atoms: _421  and  _423
REMARK  167  A    between atoms: _423  and  _424
REMARK  168  A    between atoms: _423  and  _426
REMARK  169  A    between atoms: _426  and  _427
REMARK  170  A    between atoms: _430  and  _432
REMARK  171  A    between atoms: _432  and  _433
REMARK  172  A    between atoms: _432  and  _435
REMARK  173  A    between atoms: _435  and  _436
REMARK  174  A    between atoms: _436  and  _437
REMARK  175  A    between atoms: _437  and  _438
REMARK  176  A    between atoms: _438  and  _439
REMARK  177  A    between atoms: _443  and  _445
REMARK  178  A    between atoms: _445  and  _446
REMARK  179  A    between atoms: _445  and  _448
REMARK  180  A    between atoms: _448  and  _449
REMARK  181  A    between atoms: _452  and  _454
REMARK  182  A    between atoms: _454  and  _455
REMARK  183  A    between atoms: _454  and  _457
REMARK  184  A    between atoms: _460  and  _462
REMARK  185  A    between atoms: _462  and  _463
REMARK  186  A    between atoms: _462  and  _465
REMARK  187  A    between atoms: _465  and  _466
REMARK  188  A    between atoms: _469  and  _471
REMARK  189  A    between atoms: _471  and  _472
REMARK  190  A    between atoms: _471  and  _474
REMARK  191  A    between atoms: _474  and  _475
REMARK  192  A    between atoms: _477  and  _479
REMARK  193  A    between atoms: _479  and  _480
REMARK  194  A    between atoms: _482  and  _484
REMARK  195  A    between atoms: _484  and  _485
REMARK  196  A    between atoms: _484  and  _487
REMARK  197  A    between atoms: _487  and  _488
REMARK  198  A    between atoms: _491  and  _493
REMARK  199  A    between atoms: _493  and  _494
REMARK  200  A    between atoms: _493  and  _496
REMARK  201  A    between atoms: _496  and  _497
REMARK  202  A    between atoms: _500  and  _502
REMARK  203  A    between atoms: _502  and  _503
REMARK  204  A    between atoms: _502  and  _505
REMARK  205  A    between atoms: _505  and  _506
REMARK  206  A    between atoms: _511  and  _513
REMARK  207  A    between atoms: _513  and  _514
REMARK  208  A    between atoms: _513  and  _516
REMARK  209  A    between atoms: _516  and  _517
REMARK  210  A    between atoms: _520  and  _522
REMARK  211  A    between atoms: _522  and  _523
REMARK  212  A    between atoms: _522  and  _525
REMARK  213  A    between atoms: _525  and  _526
REMARK  214  A    between atoms: _526  and  _527
REMARK  215  A    between atoms: _527  and  _528
REMARK  216  A    between atoms: _537  and  _539
REMARK  217  A    between atoms: _539  and  _540
REMARK  218  A    between atoms: _539  and  _542
REMARK  219  A    between atoms: _542  and  _543
REMARK  220  A    between atoms: _546  and  _548
REMARK  221  A    between atoms: _548  and  _549
REMARK  222  A    between atoms: _551  and  _553
REMARK  223  A    between atoms: _553  and  _554
REMARK  224  A    between atoms: _553  and  _556
REMARK  225  A    between atoms: _556  and  _557
REMARK  226  A    between atoms: _557  and  _558
REMARK  227  A    between atoms: _561  and  _563
REMARK  228  A    between atoms: _563  and  _564
REMARK  229  A    between atoms: _563  and  _566
REMARK  230  A    between atoms: _566  and  _567
REMARK  231  A    between atoms: _567  and  _568
REMARK  232  A    between atoms: _568  and  _569
REMARK  233  A    between atoms: _578  and  _580
REMARK  234  A    between atoms: _580  and  _581
REMARK  235  A    between atoms: _580  and  _583
REMARK  236  A    between atoms: _583  and  _584
REMARK  237  A    between atoms: _584  and  _585
REMARK  238  A    between atoms: _585  and  _586
REMARK  239  A    between atoms: _586  and  _587
REMARK  240  A    between atoms: _591  and  _593
REMARK  241  A    between atoms: _593  and  _594
REMARK  242  A    between atoms: _593  and  _596
REMARK  243  A    between atoms: _596  and  _597
REMARK  244  A    between atoms: _603  and  _605
REMARK  245  A    between atoms: _605  and  _606
REMARK  246  A    between atoms: _609  and  _611
REMARK  247  A    between atoms: _611  and  _612
REMARK  248  A    between atoms: _611  and  _614
REMARK  249  A    between atoms: _614  and  _615
REMARK  250  A    between atoms: _618  and  _620
REMARK  251  A    between atoms: _620  and  _621
REMARK  252  A    between atoms: _620  and  _623
REMARK  253  A    between atoms: _623  and  _624
REMARK  254  A    between atoms: _626  and  _628
REMARK  255  A    between atoms: _628  and  _629
REMARK  256  A    between atoms: _628  and  _631
REMARK  257  A    between atoms: _631  and  _632
REMARK  258  A    between atoms: _632  and  _633
REMARK  259  A    between atoms: _638  and  _640
REMARK  260  A    between atoms: _640  and  _641
REMARK  261  A    between atoms: _640  and  _643
REMARK  262  A    between atoms: _643  and  _644
REMARK  263  A    between atoms: _646  and  _648
REMARK  264  A    between atoms: _648  and  _649
REMARK  265  A    between atoms: _648  and  _651
REMARK  266  A    between atoms: _651  and  _652
REMARK  267  A    between atoms: _654  and  _656
REMARK  268  A    between atoms: _656  and  _657
REMARK  269  A    between atoms: _656  and  _659
REMARK  270  A    between atoms: _659  and  _660
REMARK  271  A    between atoms: _663  and  _665
REMARK  272  A    between atoms: _665  and  _666
REMARK  273  A    between atoms: _668  and  _670
REMARK  274  A    between atoms: _670  and  _671
REMARK  275  A    between atoms: _670  and  _673
REMARK  276  A    between atoms: _673  and  _674
REMARK  277  A    between atoms: _677  and  _679
REMARK  278  A    between atoms: _679  and  _680
REMARK  279  A    between atoms: _679  and  _682
REMARK  280  A    between atoms: _685  and  _687
REMARK  281  A    between atoms: _687  and  _688
REMARK  282  A    between atoms: _690  and  _692
REMARK  283  A    between atoms: _692  and  _693
REMARK  284  A    between atoms: _696  and  _698
REMARK  285  A    between atoms: _698  and  _699
REMARK  286  A    between atoms: _698  and  _701
REMARK                            x       y       z     vdW  Elec       q    Type
REMARK                         _______ _______ _______ _____ _____    ______ ____
ROOT
ATOM      1  C   THR A   4      16.987  -3.610   7.309  0.00  0.00    +0.243 C 
ATOM      2  O   THR A   4      16.698  -4.478   8.115  0.00  0.00    -0.273 OA
ATOM      3  N   GLY A   5      16.292  -3.412   6.176  0.00  0.00    -0.295 N 
ATOM      4  H   GLY A   5      16.570  -2.642   5.535  0.00  0.00    +0.150 HD
ENDROOT
BRANCH   1   5
ATOM      5  CA  THR A   4      18.201  -2.699   7.587  0.00  0.00    +0.176 C 
BRANCH   5   7
ATOM      6  C   ASP A   3      19.033  -2.306   5.365  0.00  0.00    +0.241 C 
ATOM      7  N   THR A   4      18.457  -1.812   6.458  0.00  0.00    -0.295 N 
ATOM      8  H   THR A   4      18.193  -0.807   6.507  0.00  0.00    +0.150 HD
ATOM      9  O   ASP A   3      19.403  -3.485   5.299  0.00  0.00    -0.273 OA
BRANCH   6  10
ATOM     10  CA  ASP A   3      19.262  -1.351   4.184  0.00  0.00    +0.160 C 
BRANCH  10  13
ATOM     11  C   VAL A   2      20.804   0.549   4.101  0.00  0.00    +0.241 C 
ATOM     12  O   VAL A   2      19.905   1.367   4.248  0.00  0.00    -0.273 OA
ATOM     13  N   ASP A   3      20.603  -0.772   4.096  0.00  0.00    -0.297 N 
ATOM     14  H   ASP A   3      21.424  -1.407   4.028  0.00  0.00    +0.150 HD
BRANCH  11  15
ATOM     15  CA  VAL A   2      22.246   1.003   3.898  0.00  0.00    +0.148 C 
BRANCH  15  17
ATOM     16  C   LEU A   1      22.650   1.011   1.478  0.00  0.00    +0.238 C 
ATOM     17  N   VAL A   2      22.343   1.669   2.604  0.00  0.00    -0.297 N 
ATOM     18  H   VAL A   2      22.167   2.693   2.553  0.00  0.00    +0.150 HD
ATOM     19  O   LEU A   1      22.815  -0.202   1.445  0.00  0.00    -0.274 OA
BRANCH  16  20
ATOM     20  CA  LEU A   1      22.737   1.837   0.198  0.00  0.00    +0.145 C 
BRANCH  20  21
ATOM     21  N   LEU A   1      23.899   1.478  -0.615  0.00  0.00    -0.238 NA
ATOM     22  H   LEU A   1      23.753   1.048  -1.551  0.00  0.00    +0.142 HD
ENDBRANCH  20  21
BRANCH  20  23
ATOM     23  CB  LEU A   1      21.445   1.671  -0.624  0.00  0.00    +0.026 C 
BRANCH  23  24
ATOM     24  CG  LEU A   1      20.132   2.096   0.063  0.00  0.00    +0.002 C 
ATOM     25  CD2 LEU A   1      19.476   0.878   0.754  0.00  0.00    +0.000 C 
ATOM     26  CD1 LEU A   1      19.197   2.710  -0.985  0.00  0.00    +0.000 C 
ENDBRANCH  23  24
ENDBRANCH  20  23
ENDBRANCH  16  20
ENDBRANCH  15  17
BRANCH  15  27
ATOM     27  CB  VAL A   2      22.710   1.951   5.030  0.00  0.00    +0.027 C 
ATOM     28  CG2 VAL A   2      22.472   1.312   6.391  0.00  0.00    +0.002 C 
ATOM     29  CG1 VAL A   2      24.188   2.249   4.856  0.00  0.00    +0.002 C 
ENDBRANCH  15  27
ENDBRANCH  11  15
ENDBRANCH  10  13
BRANCH  10  30
ATOM     30  CB  ASP A   3      18.973  -2.077   2.845  0.00  0.00    +0.143 C 
BRANCH  30  31
ATOM     31  CG  ASP A   3      17.527  -2.525   2.729  0.00  0.00    +0.367 C 
ATOM     32  OD2 ASP A   3      16.641  -1.723   3.097  0.00  0.00    -0.246 OA
ATOM     33  OD1 ASP A   3      17.254  -3.660   2.266  0.00  0.00    -0.246 OA
ENDBRANCH  30  31
ENDBRANCH  10  30
ENDBRANCH   6  10
ENDBRANCH   5   7
BRANCH   5  34
ATOM     34  CB  THR A   4      17.977  -1.907   8.910  0.00  0.00    +0.137 C 
ATOM     35  CG2 THR A   4      19.239  -1.125   9.276  0.00  0.00    +0.034 C 
BRANCH  34  36
ATOM     36  OG1 THR A   4      16.880  -0.990   8.761  0.00  0.00    -0.382 OA
ATOM     37  HG1 THR A   4      16.057  -1.495   8.542  0.00  0.00    +0.210 HD
ENDBRANCH  34  36
ENDBRANCH   5  34
ENDBRANCH   1   5
BRANCH   3  38
ATOM     38  CA  GLY A   5      15.154  -4.257   5.829  0.00  0.00    +0.176 C 
BRANCH  38  39
ATOM     39  C   GLY A   5      15.500  -5.545   5.020  0.00  0.00    +0.243 C 
ATOM     40  N   SER A   6      16.778  -5.743   4.679  0.00  0.00    -0.295 N 
ATOM     41  H   SER A   6      17.496  -5.031   4.923  0.00  0.00    +0.150 HD
ATOM     42  O   GLY A   5      14.596  -6.352   4.678  0.00  0.00    -0.273 OA
BRANCH  40  43
ATOM     43  CA  SER A   6      17.173  -6.966   3.959  0.00  0.00    +0.178 C 
BRANCH  43  44
ATOM     44  C   SER A   6      18.487  -7.511   4.512  0.00  0.00    +0.243 C 
ATOM     45  O   SER A   6      19.071  -6.924   5.412  0.00  0.00    -0.273 OA
ATOM     46  N   SER A   7      18.991  -8.592   3.921  0.00  0.00    -0.295 N 
ATOM     47  H   SER A   7      18.533  -8.971   3.067  0.00  0.00    +0.150 HD
BRANCH  46  48
ATOM     48  CA  SER A   7      20.176  -9.251   4.455  0.00  0.00    +0.178 C 
BRANCH  48  49
ATOM     49  C   SER A   7      21.215  -9.656   3.425  0.00  0.00    +0.243 C 
ATOM     50  O   SER A   7      22.176 -10.366   3.756  0.00  0.00    -0.273 OA
ATOM     51  N   ASN A   8      21.031  -9.228   2.177  0.00  0.00    -0.298 N 
ATOM     52  H   ASN A   8      20.198  -8.656   1.932  0.00  0.00    +0.150 HD
BRANCH  51  53
ATOM     53  CA  ASN A   8      22.008  -9.571   1.171  0.00  0.00    +0.146 C 
BRANCH  53  54
ATOM     54  C   ASN A   8      22.901  -8.384   0.835  0.00  0.00    +0.227 C 
ATOM     55  O   ASN A   8      22.431  -7.261   0.757  0.00  0.00    -0.286 OA
ENDBRANCH  53  54
BRANCH  53  56
ATOM     56  CB  ASN A   8      21.314 -10.023  -0.122  0.00  0.00    +0.112 C 
BRANCH  56  57
ATOM     57  CG  ASN A   8      20.774 -11.408  -0.016  0.00  0.00    +0.222 C 
ATOM     58  OD1 ASN A   8      19.707 -11.647   0.587  0.00  0.00    -0.275 OA
ATOM     59  ND2 ASN A   8      21.536 -12.370  -0.560  0.00  0.00    -0.329 N 
ATOM     60 HD21 ASN A   8      21.245 -13.366  -0.489  0.00  0.00    +0.145 HD
ATOM     61 HD22 ASN A   8      22.417 -12.119  -1.053  0.00  0.00    +0.145 HD
ENDBRANCH  56  57
ENDBRANCH  53  56
ENDBRANCH  51  53
ENDBRANCH  48  49
BRANCH  48  62
ATOM     62  CB  SER A   7      19.730 -10.500   5.229  0.00  0.00    +0.166 C 
BRANCH  62  63
ATOM     63  OG  SER A   7      18.807 -10.158   6.252  0.00  0.00    -0.380 OA
ATOM     64  H   SER A   7      18.534 -10.977   6.736  0.00  0.00    +0.211 HD
ENDBRANCH  62  63
ENDBRANCH  48  62
ENDBRANCH  46  48
ENDBRANCH  43  44
BRANCH  43  65
ATOM     65  CB  SER A   6      17.288  -6.727   2.455  0.00  0.00    +0.166 C 
BRANCH  65  66
ATOM     66  OG  SER A   6      18.356  -5.860   2.169  0.00  0.00    -0.380 OA
ATOM     67  H   SER A   6      18.205  -4.992   2.620  0.00  0.00    +0.211 HD
ENDBRANCH  65  66
ENDBRANCH  43  65
ENDBRANCH  40  43
ENDBRANCH  38  39
ENDBRANCH   3  38
TORSDOF 29
REMARK  Name = ../refined-set-2016/1fkn/1fkn_pocket.pdb
REMARK  286 active torsions:
REMARK  status: ('A' for Active; 'I' for Inactive)
REMARK    1  A    between atoms: _1  and  _3
REMARK    2  A    between atoms: _3  and  _4
REMARK    3  A    between atoms: _3  and  _6
REMARK    4  A    between atoms: _6  and  _7
REMARK    5  A    between atoms: _7  and  _8
REMARK    6  A    between atoms: _8  and  _9
REMARK    7  A    between atoms: _9  and  _10
REMARK    8  A    between atoms: _14  and  _16
REMARK    9  A    between atoms: _16  and  _17
REMARK   10  A    between atoms: _16  and  _19
REMARK   11  A    between atoms: _19  and  _20
REMARK   12  A    between atoms: _22  and  _24
REMARK   13  A    between atoms: _24  and  _25
REMARK   14  A    between atoms: _27  and  _29
REMARK   15  A    between atoms: _29  and  _30
REMARK   16  A    between atoms: _29  and  _32
REMARK   17  A    between atoms: _32  and  _33
REMARK   18  A    between atoms: _33  and  _34
REMARK   19  A    between atoms: _39  and  _41
REMARK   20  A    between atoms: _41  and  _42
REMARK   21  A    between atoms: _44  and  _46
REMARK   22  A    between atoms: _46  and  _47
REMARK   23  A    between atoms: _46  and  _49
REMARK   24  A    between atoms: _49  and  _50
REMARK   25  A    between atoms: _55  and  _56
REMARK   26  A    between atoms: _58  and  _60
REMARK   27  A    between atoms: _60  and  _61
REMARK   28  A    between atoms: _60  and  _63
REMARK   29  A    between atoms: _63  and  _64
REMARK   30  A    between atoms: _67  and  _69
REMARK   31  A    between atoms: _69  and  _70
REMARK   32  A    between atoms: _69  and  _72
REMARK   33  A    between atoms: _75  and  _77
REMARK   34  A    between atoms: _77  and  _78
REMARK   35  A    between atoms: _77  and  _80
REMARK   36  A    between atoms: _80  and  _81
REMARK   37  A    between atoms: _84  and  _86
REMARK   38  A    between atoms: _86  and  _87
REMARK   39  A    between atoms: _86  and  _89
REMARK   40  A    between atoms: _89  and  _90
REMARK   41  A    between atoms: _93  and  _95
REMARK   42  A    between atoms: _95  and  _96
REMARK   43  A    between atoms: _98  and  _100
REMARK   44  A    between atoms: _100  and  _101
REMARK   45  A    between atoms: _100  and  _103
REMARK   46  A    between atoms: _103  and  _104
REMARK   47  A    between atoms: _106  and  _108
REMARK   48  A    between atoms: _108  and  _109
REMARK   49  A    between atoms: _108  and  _111
REMARK   50  A    between atoms: _111  and  _112
REMARK   51  A    between atoms: _114  and  _116
REMARK   52  A    between atoms: _116  and  _117
REMARK   53  A    between atoms: _116  and  _119
REMARK   54  A    between atoms: _119  and  _120
REMARK   55  A    between atoms: _125  and  _127
REMARK   56  A    between atoms: _127  and  _128
REMARK   57  A    between atoms: _127  and  _130
REMARK   58  A    between atoms: _130  and  _131
REMARK   59  A    between atoms: _136  and  _137
REMARK   60  A    between atoms: _139  and  _141
REMARK   61  A    between atoms: _141  and  _142
REMARK   62  A    between atoms: _141  and  _144
REMARK   63  A    between atoms: _148  and  _149
REMARK   64  A    between atoms: _154  and  _156
REMARK   65  A    between atoms: _156  and  _157
REMARK   66  A    between atoms: _156  and  _159
REMARK   67  A    between atoms: _159  and  _160
REMARK   68  A    between atoms: _165  and  _166
REMARK   69  A    between atoms: _168  and  _170
REMARK   70  A    between atoms: _170  and  _171
REMARK   71  A    between atoms: _170  and  _173
REMARK   72  A    between atoms: _173  and  _174
REMARK   73  A    between atoms: _177  and  _179
REMARK   74  A    between atoms: _179  and  _180
REMARK   75  A    between atoms: _179  and  _182
REMARK   76  A    between atoms: _182  and  _183
REMARK   77  A    between atoms: _183  and  _184
REMARK   78  A    between atoms: _189  and  _191
REMARK   79  A    between atoms: _191  and  _192
REMARK   80  A    between atoms: _194  and  _196
REMARK   81  A    between atoms: _196  and  _197
REMARK   82  A    between atoms: _196  and  _199
REMARK   83  A    between atoms: _199  and  _200
REMARK   84  A    between atoms: _200  and  _201
REMARK   85  A    between atoms: _201  and  _202
REMARK   86  A    between atoms: _202  and  _203
REMARK   87  A    between atoms: _207  and  _209
REMARK   88  A    between atoms: _209  and  _210
REMARK   89  A    between atoms: _209  and  _212
REMARK   90  A    between atoms: _212  and  _213
REMARK   91  A    between atoms: _223  and  _225
REMARK   92  A    between atoms: _225  and  _226
REMARK   93  A    between atoms: _225  and  _228
REMARK   94  A    between atoms: _228  and  _229
REMARK   95  A    between atoms: _232  and  _234
REMARK   96  A    between atoms: _234  and  _235
REMARK   97  A    between atoms: _234  and  _237
REMARK   98  A    between atoms: _237  and  _238
REMARK   99  A    between atoms: _238  and  _239
REMARK  100  A    between atoms: _239  and  _240
REMARK  101  A    between atoms: _240  and  _241
REMARK  102  A    between atoms: _245  and  _247
REMARK  103  A    between atoms: _247  and  _248
REMARK  104  A    between atoms: _247  and  _250
REMARK  105  A    between atoms: _250  and  _251
REMARK  106  A    between atoms: _257  and  _259
REMARK  107  A    between atoms: _259  and  _260
REMARK  108  A    between atoms: _259  and  _262
REMARK  109  A    between atoms: _262  and  _263
REMARK  110  A    between atoms: _269  and  _271
REMARK  111  A    between atoms: _271  and  _272
REMARK  112  A    between atoms: _271  and  _274
REMARK  113  A    between atoms: _274  and  _275
REMARK  114  A    between atoms: _278  and  _280
REMARK  115  A    between atoms: _280  and  _281
REMARK  116  A    between atoms: _280  and  _283
REMARK  117  A    between atoms: _283  and  _284
REMARK  118  A    between atoms: _286  and  _288
REMARK  119  A    between atoms: _288  and  _289
REMARK  120  A    between atoms: _288  and  _291
REMARK  121  A    between atoms: _291  and  _292
REMARK  122  A    between atoms: _302  and  _304
REMARK  123  A    between atoms: _304  and  _305
REMARK  124  A    between atoms: _307  and  _309
REMARK  125  A    between atoms: _309  and  _310
REMARK  126  A    between atoms: _309  and  _312
REMARK  127  A    between atoms: _312  and  _313
REMARK  128  A    between atoms: _316  and  _318
REMARK  129  A    between atoms: _318  and  _319
REMARK  130  A    between atoms: _318  and  _321
REMARK  131  A    between atoms: _321  and  _322
REMARK  132  A    between atoms: _325  and  _327
REMARK  133  A    between atoms: _327  and  _328
REMARK  134  A    between atoms: _330  and  _332
REMARK  135  A    between atoms: _332  and  _333
REMARK  136  A    between atoms: _332  and  _335
REMARK  137  A    between atoms: _335  and  _336
REMARK  138  A    between atoms: _339  and  _341
REMARK  139  A    between atoms: _341  and  _342
REMARK  140  A    between atoms: _345  and  _347
REMARK  141  A    between atoms: _347  and  _348
REMARK  142  A    between atoms: _347  and  _350
REMARK  143  A    between atoms: _350  and  _351
REMARK  144  A    between atoms: _356  and  _357
REMARK  145  A    between atoms: _359  and  _361
REMARK  146  A    between atoms: _361  and  _362
REMARK  147  A    between atoms: _361  and  _364
REMARK  148  A    between atoms: _364  and  _365
REMARK  149  A    between atoms: _368  and  _370
REMARK  150  A    between atoms: _370  and  _371
REMARK  151  A    between atoms: _374  and  _376
REMARK  152  A    between atoms: _376  and  _377
REMARK  153  A    between atoms: _376  and  _379
REMARK  154  A    between atoms: _379  and  _380
REMARK  155  A    between atoms: _380  and  _381
REMARK  156  A    between atoms: _381  and  _382
REMARK  157  A    between atoms: _391  and  _393
REMARK  158  A    between atoms: _393  and  _394
REMARK  159  A    between atoms: _393  and  _396
REMARK  160  A    between atoms: _396  and  _397
REMARK  161  A    between atoms: _407  and  _409
REMARK  162  A    between atoms: _409  and  _410
REMARK  163  A    between atoms: _409  and  _412
REMARK  164  A    between atoms: _412  and  _413
REMARK  165  A    between atoms: _418  and  _419
REMARK  166  A    between atoms: _421  and  _423
REMARK  167  A    between atoms: _423  and  _424
REMARK  168  A    between atoms: _423  and  _426
REMARK  169  A    between atoms: _426  and  _427
REMARK  170  A    between atoms: _430  and  _432
REMARK  171  A    between atoms: _432  and  _433
REMARK  172  A    between atoms: _432  and  _435
REMARK  173  A    between atoms: _435  and  _436
REMARK  174  A    between atoms: _436  and  _437
REMARK  175  A    between atoms: _437  and  _438
REMARK  176  A    between atoms: _438  and  _439
REMARK  177  A    between atoms: _443  and  _445
REMARK  178  A    between atoms: _445  and  _446
REMARK  179  A    between atoms: _445  and  _448
REMARK  180  A    between atoms: _448  and  _449
REMARK  181  A    between atoms: _452  and  _454
REMARK  182  A    between atoms: _454  and  _455
REMARK  183  A    between atoms: _454  and  _457
REMARK  184  A    between atoms: _460  and  _462
REMARK  185  A    between atoms: _462  and  _463
REMARK  186  A    between atoms: _462  and  _465
REMARK  187  A    between atoms: _465  and  _466
REMARK  188  A    between atoms: _469  and  _471
REMARK  189  A    between atoms: _471  and  _472
REMARK  190  A    between atoms: _471  and  _474
REMARK  191  A    between atoms: _474  and  _475
REMARK  192  A    between atoms: _477  and  _479
REMARK  193  A    between atoms: _479  and  _480
REMARK  194  A    between atoms: _482  and  _484
REMARK  195  A    between atoms: _484  and  _485
REMARK  196  A    between atoms: _484  and  _487
REMARK  197  A    between atoms: _487  and  _488
REMARK  198  A    between atoms: _491  and  _493
REMARK  199  A    between atoms: _493  and  _494
REMARK  200  A    between atoms: _493  and  _496
REMARK  201  A    between atoms: _496  and  _497
REMARK  202  A    between atoms: _500  and  _502
REMARK  203  A    between atoms: _502  and  _503
REMARK  204  A    between atoms: _502  and  _505
REMARK  205  A    between atoms: _505  and  _506
REMARK  206  A    between atoms: _511  and  _513
REMARK  207  A    between atoms: _513  and  _514
REMARK  208  A    between atoms: _513  and  _516
REMARK  209  A    between atoms: _516  and  _517
REMARK  210  A    between atoms: _520  and  _522
REMARK  211  A    between atoms: _522  and  _523
REMARK  212  A    between atoms: _522  and  _525
REMARK  213  A    between atoms: _525  and  _526
REMARK  214  A    between atoms: _526  and  _527
REMARK  215  A    between atoms: _527  and  _528
REMARK  216  A    between atoms: _537  and  _539
REMARK  217  A    between atoms: _539  and  _540
REMARK  218  A    between atoms: _539  and  _542
REMARK  219  A    between atoms: _542  and  _543
REMARK  220  A    between atoms: _546  and  _548
REMARK  221  A    between atoms: _548  and  _549
REMARK  222  A    between atoms: _551  and  _553
REMARK  223  A    between atoms: _553  and  _554
REMARK  224  A    between atoms: _553  and  _556
REMARK  225  A    between atoms: _556  and  _557
REMARK  226  A    between atoms: _557  and  _558
REMARK  227  A    between atoms: _561  and  _563
REMARK  228  A    between atoms: _563  and  _564
REMARK  229  A    between atoms: _563  and  _566
REMARK  230  A    between atoms: _566  and  _567
REMARK  231  A    between atoms: _567  and  _568
REMARK  232  A    between atoms: _568  and  _569
REMARK  233  A    between atoms: _578  and  _580
REMARK  234  A    between atoms: _580  and  _581
REMARK  235  A    between atoms: _580  and  _583
REMARK  236  A    between atoms: _583  and  _584
REMARK  237  A    between atoms: _584  and  _585
REMARK  238  A    between atoms: _585  and  _586
REMARK  239  A    between atoms: _586  and  _587
REMARK  240  A    between atoms: _591  and  _593
REMARK  241  A    between atoms: _593  and  _594
REMARK  242  A    between atoms: _593  and  _596
REMARK  243  A    between atoms: _596  and  _597
REMARK  244  A    between atoms: _603  and  _605
REMARK  245  A    between atoms: _605  and  _606
REMARK  246  A    between atoms: _609  and  _611
REMARK  247  A    between atoms: _611  and  _612
REMARK  248  A    between atoms: _611  and  _614
REMARK  249  A    between atoms: _614  and  _615
REMARK  250  A    between atoms: _618  and  _620
REMARK  251  A    between atoms: _620  and  _621
REMARK  252  A    between atoms: _620  and  _623
REMARK  253  A    between atoms: _623  and  _624
REMARK  254  A    between atoms: _626  and  _628
REMARK  255  A    between atoms: _628  and  _629
REMARK  256  A    between atoms: _628  and  _631
REMARK  257  A    between atoms: _631  and  _632
REMARK  258  A    between atoms: _632  and  _633
REMARK  259  A    between atoms: _638  and  _640
REMARK  260  A    between atoms: _640  and  _641
REMARK  261  A    between atoms: _640  and  _643
REMARK  262  A    between atoms: _643  and  _644
REMARK  263  A    between atoms: _646  and  _648
REMARK  264  A    between atoms: _648  and  _649
REMARK  265  A    between atoms: _648  and  _651
REMARK  266  A    between atoms: _651  and  _652
REMARK  267  A    between atoms: _654  and  _656
REMARK  268  A    between atoms: _656  and  _657
REMARK  269  A    between atoms: _656  and  _659
REMARK  270  A    between atoms: _659  and  _660
REMARK  271  A    between atoms: _663  and  _665
REMARK  272  A    between atoms: _665  and  _666
REMARK  273  A    between atoms: _668  and  _670
REMARK  274  A    between atoms: _670  and  _671
REMARK  275  A    between atoms: _670  and  _673
REMARK  276  A    between atoms: _673  and  _674
REMARK  277  A    between atoms: _677  and  _679
REMARK  278  A    between atoms: _679  and  _680
REMARK  279  A    between atoms: _679  and  _682
REMARK  280  A    between atoms: _685  and  _687
REMARK  281  A    between atoms: _687  and  _688
REMARK  282  A    between atoms: _690  and  _692
REMARK  283  A    between atoms: _692  and  _693
REMARK  284  A    between atoms: _696  and  _698
REMARK  285  A    between atoms: _698  and  _699
REMARK  286  A    between atoms: _698  and  _701
REMARK                            x       y       z     vdW  Elec       q    Type
REMARK                         _______ _______ _______ _____ _____    ______ ____
ROOT
ATOM      1  CA  THR A   5       8.547  -4.625  -1.643  0.00  0.00    +0.176 C 
ENDROOT
BRANCH   1   3
ATOM      2  C   TYR A   4      10.402  -5.915  -2.529  0.00  0.00    +0.241 C 
ATOM      3  N   THR A   5       9.890  -5.171  -1.548  0.00  0.00    -0.295 N 
ATOM      4  H   THR A   5      10.462  -4.978  -0.701  0.00  0.00    +0.150 HD
ATOM      5  O   TYR A   4       9.779  -6.203  -3.554  0.00  0.00    -0.273 OA
BRANCH   2   6
ATOM      6  CA  TYR A   4      11.836  -6.395  -2.352  0.00  0.00    +0.153 C 
BRANCH   6   9
ATOM      7  C   PRO A   3      12.417  -8.513  -3.383  0.00  0.00    +0.241 C 
ATOM      8  O   PRO A   3      12.434  -9.065  -2.281  0.00  0.00    -0.273 OA
ATOM      9  N   TYR A   4      12.134  -7.231  -3.518  0.00  0.00    -0.297 N 
ATOM     10  H   TYR A   4      12.122  -6.807  -4.468  0.00  0.00    +0.150 HD
BRANCH   7  16
ATOM     11  C   VAL A   2      15.039  -9.991  -4.824  0.00  0.00    +0.244 C 
ATOM     12  N   PRO A   3      13.791 -10.225  -4.391  0.00  0.00    -0.272 N 
ATOM     13  CD  PRO A   3      13.254 -11.563  -4.061  0.00  0.00    +0.094 C 
ATOM     14  CG  PRO A   3      11.707 -11.362  -4.098  0.00  0.00    +0.024 C 
ATOM     15  CB  PRO A   3      11.536 -10.227  -5.058  0.00  0.00    +0.031 C 
ATOM     16  CA  PRO A   3      12.702  -9.299  -4.683  0.00  0.00    +0.152 C 
ATOM     17  O   VAL A   2      15.332  -9.019  -5.528  0.00  0.00    -0.273 OA
BRANCH  11  18
ATOM     18  CA  VAL A   2      16.108 -11.004  -4.436  0.00  0.00    +0.149 C 
BRANCH  18  21
ATOM     19  C   TYR A   1      16.758 -13.005  -5.575  0.00  0.00    +0.239 C 
ATOM     20  O   TYR A   1      16.400 -13.683  -4.592  0.00  0.00    -0.274 OA
ATOM     21  N   VAL A   2      16.701 -11.679  -5.581  0.00  0.00    -0.297 N 
ATOM     22  H   VAL A   2      17.072 -11.135  -6.386  0.00  0.00    +0.150 HD
BRANCH  19  23
ATOM     23  CA  TYR A   1      17.360 -13.674  -6.804  0.00  0.00    +0.149 C 
BRANCH  23  24
ATOM     24  N   TYR A   1      18.404 -14.609  -6.385  0.00  0.00    -0.238 NA
ATOM     25  H   TYR A   1      18.203 -15.301  -5.635  0.00  0.00    +0.142 HD
ENDBRANCH  23  24
BRANCH  23  26
ATOM     26  CB  TYR A   1      16.296 -14.452  -7.572  0.00  0.00    +0.053 C 
BRANCH  26  27
ATOM     27  CG  TYR A   1      15.009 -13.724  -7.729  0.00  0.00    -0.020 A 
ATOM     28  CD2 TYR A   1      13.861 -14.175  -7.071  0.00  0.00    -0.001 A 
ATOM     29  CE2 TYR A   1      12.640 -13.535  -7.232  0.00  0.00    +0.036 A 
ATOM     30  CZ  TYR A   1      12.560 -12.432  -8.061  0.00  0.00    +0.134 A 
ATOM     31  CE1 TYR A   1      13.686 -11.961  -8.724  0.00  0.00    +0.036 A 
ATOM     32  CD1 TYR A   1      14.913 -12.609  -8.551  0.00  0.00    -0.001 A 
BRANCH  30  33
ATOM     33  OH  TYR A   1      11.345 -11.800  -8.219  0.00  0.00    -0.506 OA
ATOM     34  HH  TYR A   1      10.688 -12.439  -8.592  0.00  0.00    +0.292 HD
ENDBRANCH  30  33
ENDBRANCH  26  27
ENDBRANCH  23  26
ENDBRANCH  19  23
ENDBRANCH  18  21
BRANCH  18  35
ATOM     35  CB  VAL A   2      17.155 -10.217  -3.552  0.00  0.00    +0.027 C 
ATOM     36  CG2 VAL A   2      16.408  -9.491  -2.450  0.00  0.00    +0.002 C 
ATOM     37  CG1 VAL A   2      18.192 -11.182  -2.938  0.00  0.00    +0.002 C 
ENDBRANCH  18  35
ENDBRANCH  11  18
ENDBRANCH   7  16
ENDBRANCH   6   9
BRANCH   6  38
ATOM     38  CB  TYR A   4      12.766  -5.166  -2.338  0.00  0.00    +0.055 C 
BRANCH  38  39
ATOM     39  CG  TYR A   4      14.228  -5.488  -2.281  0.00  0.00    -0.020 A 
ATOM     40  CD2 TYR A   4      14.879  -5.677  -1.059  0.00  0.00    -0.001 A 
ATOM     41  CE2 TYR A   4      16.259  -5.956  -1.016  0.00  0.00    +0.036 A 
ATOM     42  CZ  TYR A   4      16.964  -6.053  -2.214  0.00  0.00    +0.134 A 
ATOM     43  CE1 TYR A   4      16.323  -5.873  -3.434  0.00  0.00    +0.036 A 
ATOM     44  CD1 TYR A   4      14.986  -5.592  -3.467  0.00  0.00    -0.001 A 
BRANCH  42  45
ATOM     45  OH  TYR A   4      18.296  -6.361  -2.222  0.00  0.00    -0.506 OA
ATOM     46  HH  TYR A   4      18.616  -6.459  -1.290  0.00  0.00    +0.292 HD
ENDBRANCH  42  45
ENDBRANCH  38  39
ENDBRANCH   6  38
ENDBRANCH   2   6
ENDBRANCH   1   3
BRANCH   1  47
ATOM     47  C   THR A   5       8.435  -3.923  -2.994  0.00  0.00    +0.243 C 
ATOM     48  N   GLN A   6       9.460  -3.159  -3.362  0.00  0.00    -0.297 N 
ATOM     49  H   GLN A   6      10.237  -2.996  -2.690  0.00  0.00    +0.150 HD
ATOM     50  O   THR A   5       7.434  -4.078  -3.691  0.00  0.00    -0.273 OA
BRANCH  48  51
ATOM     51  CA  GLN A   6       9.524  -2.541  -4.690  0.00  0.00    +0.149 C 
BRANCH  51  52
ATOM     52  C   GLN A   6      10.938  -2.740  -5.233  0.00  0.00    +0.241 C 
ATOM     53  O   GLN A   6      11.930  -2.356  -4.615  0.00  0.00    -0.273 OA
ATOM     54  N   GLY A   7      11.026  -3.341  -6.398  0.00  0.00    -0.295 N 
ATOM     55  H   GLY A   7      10.165  -3.665  -6.884  0.00  0.00    +0.150 HD
BRANCH  54  56
ATOM     56  CA  GLY A   7      12.319  -3.550  -7.001  0.00  0.00    +0.176 C 
BRANCH  56  57
ATOM     57  C   GLY A   7      12.791  -4.968  -6.813  0.00  0.00    +0.243 C 
ATOM     58  O   GLY A   7      12.374  -5.670  -5.872  0.00  0.00    -0.273 OA
ATOM     59  N   LYS A   8      13.664  -5.396  -7.715  0.00  0.00    -0.297 N 
ATOM     60  H   LYS A   8      13.955  -4.772  -8.494  0.00  0.00    +0.150 HD
BRANCH  59  61
ATOM     61  CA  LYS A   8      14.215  -6.738  -7.615  0.00  0.00    +0.149 C 
BRANCH  61  62
ATOM     62  C   LYS A   8      15.477  -6.870  -8.466  0.00  0.00    +0.241 C 
ATOM     63  N   TRP A   9      16.315  -7.850  -8.161  0.00  0.00    -0.298 N 
ATOM     64  H   TRP A   9      16.141  -8.466  -7.341  0.00  0.00    +0.150 HD
ATOM     65  O   LYS A   8      15.715  -6.079  -9.370  0.00  0.00    -0.273 OA
BRANCH  63  66
ATOM     66  CA  TRP A   9      17.477  -8.040  -8.999  0.00  0.00    +0.141 C 
BRANCH  66  67
ATOM     67  C   TRP A   9      17.864  -9.515  -9.029  0.00  0.00    +0.227 C 
ATOM     68  O   TRP A   9      17.460 -10.302  -8.193  0.00  0.00    -0.286 OA
ENDBRANCH  66  67
BRANCH  66  69
ATOM     69  CB  TRP A   9      18.671  -7.171  -8.559  0.00  0.00    +0.056 C 
BRANCH  69  70
ATOM     70  CG  TRP A   9      19.060  -7.292  -7.111  0.00  0.00    -0.002 A 
ATOM     71  CD1 TRP A   9      18.794  -6.397  -6.111  0.00  0.00    +0.068 A 
ATOM     72  NE1 TRP A   9      19.296  -6.858  -4.919  0.00  0.00    -0.352 N 
ATOM     73  HE1 TRP A   9      19.232  -6.365  -4.005  0.00  0.00    +0.166 HD
ATOM     74  CE2 TRP A   9      19.896  -8.076  -5.130  0.00  0.00    +0.056 A 
ATOM     75  CZ2 TRP A   9      20.546  -8.944  -4.219  0.00  0.00    +0.017 A 
ATOM     76  CH2 TRP A   9      21.064 -10.118  -4.716  0.00  0.00    +0.001 A 
ATOM     77  CZ3 TRP A   9      20.950 -10.451  -6.091  0.00  0.00    +0.000 A 
ATOM     78  CE3 TRP A   9      20.301  -9.581  -6.995  0.00  0.00    +0.001 A 
ATOM     79  CD2 TRP A   9      19.766  -8.378  -6.507  0.00  0.00    +0.013 A 
ENDBRANCH  69  70
ENDBRANCH  66  69
ENDBRANCH  63  66
ENDBRANCH  61  62
BRANCH  61  80
ATOM     80  CB  LYS A   8      13.181  -7.750  -8.085  0.00  0.00    +0.029 C 
BRANCH  80  81
ATOM     81  CG  LYS A   8      12.709  -7.461  -9.489  0.00  0.00    +0.000 C 
BRANCH  81  82
ATOM     82  CD  LYS A   8      12.083  -8.662 -10.134  0.00  0.00    -0.024 C 
BRANCH  82  83
ATOM     83  CE  LYS A   8      10.656  -8.851  -9.720  0.00  0.00    -0.086 C 
BRANCH  83  84
ATOM     84  NZ  LYS A   8      10.153 -10.076 -10.416  0.00  0.00    +0.380 N 
ATOM     85  HZ1 LYS A   8      10.728 -10.895 -10.133  0.00  0.00    -0.089 HD
ATOM     86  HZ2 LYS A   8       9.161 -10.240 -10.152  0.00  0.00    -0.089 HD
ATOM     87  HZ3 LYS A   8      10.222  -9.941 -11.445  0.00  0.00    -0.089 HD
ENDBRANCH  83  84
ENDBRANCH  82  83
ENDBRANCH  81  82
ENDBRANCH  80  81
ENDBRANCH  61  80
ENDBRANCH  59  61
ENDBRANCH  56  57
ENDBRANCH  54  56
ENDBRANCH  51  52
BRANCH  51  88
ATOM     88  CB  GLN A   6       9.216  -1.038  -4.679  0.00  0.00    +0.039 C 
BRANCH  88  89
ATOM     89  CG  GLN A   6       7.776  -0.699  -4.397  0.00  0.00    +0.087 C 
BRANCH  89  90
ATOM     90  CD  GLN A   6       6.904  -0.881  -5.622  0.00  0.00    +0.219 C 
ATOM     91  NE2 GLN A   6       5.889  -1.753  -5.515  0.00  0.00    -0.329 N 
ATOM     92 HE21 GLN A   6       5.733  -2.262  -4.622  0.00  0.00    +0.145 HD
ATOM     93 HE22 GLN A   6       5.259  -1.920  -6.326  0.00  0.00    +0.145 HD
ATOM     94  OE1 GLN A   6       7.141  -0.243  -6.664  0.00  0.00    -0.275 OA
ENDBRANCH  89  90
ENDBRANCH  88  89
ENDBRANCH  51  88
ENDBRANCH  48  51
ENDBRANCH   1  47
BRANCH   1  95
ATOM     95  CB  THR A   5       8.288  -3.714  -0.451  0.00  0.00    +0.137 C 
ATOM     96  CG2 THR A   5       7.007  -2.892  -0.603  0.00  0.00    +0.034 C 
BRANCH  95  97
ATOM     97  OG1 THR A   5       8.128  -4.559   0.683  0.00  0.00    -0.382 OA
ATOM     98  HG1 THR A   5       7.957  -4.004   1.485  0.00  0.00    +0.210 HD
ENDBRANCH  95  97
ENDBRANCH   1  95
TORSDOF 36
REMARK  Name = ../refined-set-2016/1fkn/1fkn_pocket.pdb
REMARK  286 active torsions:
REMARK  status: ('A' for Active; 'I' for Inactive)
REMARK    1  A    between atoms: _1  and  _3
REMARK    2  A    between atoms: _3  and  _4
REMARK    3  A    between atoms: _3  and  _6
REMARK    4  A    between atoms: _6  and  _7
REMARK    5  A    between atoms: _7  and  _8
REMARK    6  A    between atoms: _8  and  _9
REMARK    7  A    between atoms: _9  and  _10
REMARK    8  A    between atoms: _14  and  _16
REMARK    9  A    between atoms: _16  and  _17
REMARK   10  A    between atoms: _16  and  _19
REMARK   11  A    between atoms: _19  and  _20
REMARK   12  A    between atoms: _22  and  _24
REMARK   13  A    between atoms: _24  and  _25
REMARK   14  A    between atoms: _27  and  _29
REMARK   15  A    between atoms: _29  and  _30
REMARK   16  A    between atoms: _29  and  _32
REMARK   17  A    between atoms: _32  and  _33
REMARK   18  A    between atoms: _33  and  _34
REMARK   19  A    between atoms: _39  and  _41
REMARK   20  A    between atoms: _41  and  _42
REMARK   21  A    between atoms: _44  and  _46
REMARK   22  A    between atoms: _46  and  _47
REMARK   23  A    between atoms: _46  and  _49
REMARK   24  A    between atoms: _49  and  _50
REMARK   25  A    between atoms: _55  and  _56
REMARK   26  A    between atoms: _58  and  _60
REMARK   27  A    between atoms: _60  and  _61
REMARK   28  A    between atoms: _60  and  _63
REMARK   29  A    between atoms: _63  and  _64
REMARK   30  A    between atoms: _67  and  _69
REMARK   31  A    between atoms: _69  and  _70
REMARK   32  A    between atoms: _69  and  _72
REMARK   33  A    between atoms: _75  and  _77
REMARK   34  A    between atoms: _77  and  _78
REMARK   35  A    between atoms: _77  and  _80
REMARK   36  A    between atoms: _80  and  _81
REMARK   37  A    between atoms: _84  and  _86
REMARK   38  A    between atoms: _86  and  _87
REMARK   39  A    between atoms: _86  and  _89
REMARK   40  A    between atoms: _89  and  _90
REMARK   41  A    between atoms: _93  and  _95
REMARK   42  A    between atoms: _95  and  _96
REMARK   43  A    between atoms: _98  and  _100
REMARK   44  A    between atoms: _100  and  _101
REMARK   45  A    between atoms: _100  and  _103
REMARK   46  A    between atoms: _103  and  _104
REMARK   47  A    between atoms: _106  and  _108
REMARK   48  A    between atoms: _108  and  _109
REMARK   49  A    between atoms: _108  and  _111
REMARK   50  A    between atoms: _111  and  _112
REMARK   51  A    between atoms: _114  and  _116
REMARK   52  A    between atoms: _116  and  _117
REMARK   53  A    between atoms: _116  and  _119
REMARK   54  A    between atoms: _119  and  _120
REMARK   55  A    between atoms: _125  and  _127
REMARK   56  A    between atoms: _127  and  _128
REMARK   57  A    between atoms: _127  and  _130
REMARK   58  A    between atoms: _130  and  _131
REMARK   59  A    between atoms: _136  and  _137
REMARK   60  A    between atoms: _139  and  _141
REMARK   61  A    between atoms: _141  and  _142
REMARK   62  A    between atoms: _141  and  _144
REMARK   63  A    between atoms: _148  and  _149
REMARK   64  A    between atoms: _154  and  _156
REMARK   65  A    between atoms: _156  and  _157
REMARK   66  A    between atoms: _156  and  _159
REMARK   67  A    between atoms: _159  and  _160
REMARK   68  A    between atoms: _165  and  _166
REMARK   69  A    between atoms: _168  and  _170
REMARK   70  A    between atoms: _170  and  _171
REMARK   71  A    between atoms: _170  and  _173
REMARK   72  A    between atoms: _173  and  _174
REMARK   73  A    between atoms: _177  and  _179
REMARK   74  A    between atoms: _179  and  _180
REMARK   75  A    between atoms: _179  and  _182
REMARK   76  A    between atoms: _182  and  _183
REMARK   77  A    between atoms: _183  and  _184
REMARK   78  A    between atoms: _189  and  _191
REMARK   79  A    between atoms: _191  and  _192
REMARK   80  A    between atoms: _194  and  _196
REMARK   81  A    between atoms: _196  and  _197
REMARK   82  A    between atoms: _196  and  _199
REMARK   83  A    between atoms: _199  and  _200
REMARK   84  A    between atoms: _200  and  _201
REMARK   85  A    between atoms: _201  and  _202
REMARK   86  A    between atoms: _202  and  _203
REMARK   87  A    between atoms: _207  and  _209
REMARK   88  A    between atoms: _209  and  _210
REMARK   89  A    between atoms: _209  and  _212
REMARK   90  A    between atoms: _212  and  _213
REMARK   91  A    between atoms: _223  and  _225
REMARK   92  A    between atoms: _225  and  _226
REMARK   93  A    between atoms: _225  and  _228
REMARK   94  A    between atoms: _228  and  _229
REMARK   95  A    between atoms: _232  and  _234
REMARK   96  A    between atoms: _234  and  _235
REMARK   97  A    between atoms: _234  and  _237
REMARK   98  A    between atoms: _237  and  _238
REMARK   99  A    between atoms: _238  and  _239
REMARK  100  A    between atoms: _239  and  _240
REMARK  101  A    between atoms: _240  and  _241
REMARK  102  A    between atoms: _245  and  _247
REMARK  103  A    between atoms: _247  and  _248
REMARK  104  A    between atoms: _247  and  _250
REMARK  105  A    between atoms: _250  and  _251
REMARK  106  A    between atoms: _257  and  _259
REMARK  107  A    between atoms: _259  and  _260
REMARK  108  A    between atoms: _259  and  _262
REMARK  109  A    between atoms: _262  and  _263
REMARK  110  A    between atoms: _269  and  _271
REMARK  111  A    between atoms: _271  and  _272
REMARK  112  A    between atoms: _271  and  _274
REMARK  113  A    between atoms: _274  and  _275
REMARK  114  A    between atoms: _278  and  _280
REMARK  115  A    between atoms: _280  and  _281
REMARK  116  A    between atoms: _280  and  _283
REMARK  117  A    between atoms: _283  and  _284
REMARK  118  A    between atoms: _286  and  _288
REMARK  119  A    between atoms: _288  and  _289
REMARK  120  A    between atoms: _288  and  _291
REMARK  121  A    between atoms: _291  and  _292
REMARK  122  A    between atoms: _302  and  _304
REMARK  123  A    between atoms: _304  and  _305
REMARK  124  A    between atoms: _307  and  _309
REMARK  125  A    between atoms: _309  and  _310
REMARK  126  A    between atoms: _309  and  _312
REMARK  127  A    between atoms: _312  and  _313
REMARK  128  A    between atoms: _316  and  _318
REMARK  129  A    between atoms: _318  and  _319
REMARK  130  A    between atoms: _318  and  _321
REMARK  131  A    between atoms: _321  and  _322
REMARK  132  A    between atoms: _325  and  _327
REMARK  133  A    between atoms: _327  and  _328
REMARK  134  A    between atoms: _330  and  _332
REMARK  135  A    between atoms: _332  and  _333
REMARK  136  A    between atoms: _332  and  _335
REMARK  137  A    between atoms: _335  and  _336
REMARK  138  A    between atoms: _339  and  _341
REMARK  139  A    between atoms: _341  and  _342
REMARK  140  A    between atoms: _345  and  _347
REMARK  141  A    between atoms: _347  and  _348
REMARK  142  A    between atoms: _347  and  _350
REMARK  143  A    between atoms: _350  and  _351
REMARK  144  A    between atoms: _356  and  _357
REMARK  145  A    between atoms: _359  and  _361
REMARK  146  A    between atoms: _361  and  _362
REMARK  147  A    between atoms: _361  and  _364
REMARK  148  A    between atoms: _364  and  _365
REMARK  149  A    between atoms: _368  and  _370
REMARK  150  A    between atoms: _370  and  _371
REMARK  151  A    between atoms: _374  and  _376
REMARK  152  A    between atoms: _376  and  _377
REMARK  153  A    between atoms: _376  and  _379
REMARK  154  A    between atoms: _379  and  _380
REMARK  155  A    between atoms: _380  and  _381
REMARK  156  A    between atoms: _381  and  _382
REMARK  157  A    between atoms: _391  and  _393
REMARK  158  A    between atoms: _393  and  _394
REMARK  159  A    between atoms: _393  and  _396
REMARK  160  A    between atoms: _396  and  _397
REMARK  161  A    between atoms: _407  and  _409
REMARK  162  A    between atoms: _409  and  _410
REMARK  163  A    between atoms: _409  and  _412
REMARK  164  A    between atoms: _412  and  _413
REMARK  165  A    between atoms: _418  and  _419
REMARK  166  A    between atoms: _421  and  _423
REMARK  167  A    between atoms: _423  and  _424
REMARK  168  A    between atoms: _423  and  _426
REMARK  169  A    between atoms: _426  and  _427
REMARK  170  A    between atoms: _430  and  _432
REMARK  171  A    between atoms: _432  and  _433
REMARK  172  A    between atoms: _432  and  _435
REMARK  173  A    between atoms: _435  and  _436
REMARK  174  A    between atoms: _436  and  _437
REMARK  175  A    between atoms: _437  and  _438
REMARK  176  A    between atoms: _438  and  _439
REMARK  177  A    between atoms: _443  and  _445
REMARK  178  A    between atoms: _445  and  _446
REMARK  179  A    between atoms: _445  and  _448
REMARK  180  A    between atoms: _448  and  _449
REMARK  181  A    between atoms: _452  and  _454
REMARK  182  A    between atoms: _454  and  _455
REMARK  183  A    between atoms: _454  and  _457
REMARK  184  A    between atoms: _460  and  _462
REMARK  185  A    between atoms: _462  and  _463
REMARK  186  A    between atoms: _462  and  _465
REMARK  187  A    between atoms: _465  and  _466
REMARK  188  A    between atoms: _469  and  _471
REMARK  189  A    between atoms: _471  and  _472
REMARK  190  A    between atoms: _471  and  _474
REMARK  191  A    between atoms: _474  and  _475
REMARK  192  A    between atoms: _477  and  _479
REMARK  193  A    between atoms: _479  and  _480
REMARK  194  A    between atoms: _482  and  _484
REMARK  195  A    between atoms: _484  and  _485
REMARK  196  A    between atoms: _484  and  _487
REMARK  197  A    between atoms: _487  and  _488
REMARK  198  A    between atoms: _491  and  _493
REMARK  199  A    between atoms: _493  and  _494
REMARK  200  A    between atoms: _493  and  _496
REMARK  201  A    between atoms: _496  and  _497
REMARK  202  A    between atoms: _500  and  _502
REMARK  203  A    between atoms: _502  and  _503
REMARK  204  A    between atoms: _502  and  _505
REMARK  205  A    between atoms: _505  and  _506
REMARK  206  A    between atoms: _511  and  _513
REMARK  207  A    between atoms: _513  and  _514
REMARK  208  A    between atoms: _513  and  _516
REMARK  209  A    between atoms: _516  and  _517
REMARK  210  A    between atoms: _520  and  _522
REMARK  211  A    between atoms: _522  and  _523
REMARK  212  A    between atoms: _522  and  _525
REMARK  213  A    between atoms: _525  and  _526
REMARK  214  A    between atoms: _526  and  _527
REMARK  215  A    between atoms: _527  and  _528
REMARK  216  A    between atoms: _537  and  _539
REMARK  217  A    between atoms: _539  and  _540
REMARK  218  A    between atoms: _539  and  _542
REMARK  219  A    between atoms: _542  and  _543
REMARK  220  A    between atoms: _546  and  _548
REMARK  221  A    between atoms: _548  and  _549
REMARK  222  A    between atoms: _551  and  _553
REMARK  223  A    between atoms: _553  and  _554
REMARK  224  A    between atoms: _553  and  _556
REMARK  225  A    between atoms: _556  and  _557
REMARK  226  A    between atoms: _557  and  _558
REMARK  227  A    between atoms: _561  and  _563
REMARK  228  A    between atoms: _563  and  _564
REMARK  229  A    between atoms: _563  and  _566
REMARK  230  A    between atoms: _566  and  _567
REMARK  231  A    between atoms: _567  and  _568
REMARK  232  A    between atoms: _568  and  _569
REMARK  233  A    between atoms: _578  and  _580
REMARK  234  A    between atoms: _580  and  _581
REMARK  235  A    between atoms: _580  and  _583
REMARK  236  A    between atoms: _583  and  _584
REMARK  237  A    between atoms: _584  and  _585
REMARK  238  A    between atoms: _585  and  _586
REMARK  239  A    between atoms: _586  and  _587
REMARK  240  A    between atoms: _591  and  _593
REMARK  241  A    between atoms: _593  and  _594
REMARK  242  A    between atoms: _593  and  _596
REMARK  243  A    between atoms: _596  and  _597
REMARK  244  A    between atoms: _603  and  _605
REMARK  245  A    between atoms: _605  and  _606
REMARK  246  A    between atoms: _609  and  _611
REMARK  247  A    between atoms: _611  and  _612
REMARK  248  A    between atoms: _611  and  _614
REMARK  249  A    between atoms: _614  and  _615
REMARK  250  A    between atoms: _618  and  _620
REMARK  251  A    between atoms: _620  and  _621
REMARK  252  A    between atoms: _620  and  _623
REMARK  253  A    between atoms: _623  and  _624
REMARK  254  A    between atoms: _626  and  _628
REMARK  255  A    between atoms: _628  and  _629
REMARK  256  A    between atoms: _628  and  _631
REMARK  257  A    between atoms: _631  and  _632
REMARK  258  A    between atoms: _632  and  _633
REMARK  259  A    between atoms: _638  and  _640
REMARK  260  A    between atoms: _640  and  _641
REMARK  261  A    between atoms: _640  and  _643
REMARK  262  A    between atoms: _643  and  _644
REMARK  263  A    between atoms: _646  and  _648
REMARK  264  A    between atoms: _648  and  _649
REMARK  265  A    between atoms: _648  and  _651
REMARK  266  A    between atoms: _651  and  _652
REMARK  267  A    between atoms: _654  and  _656
REMARK  268  A    between atoms: _656  and  _657
REMARK  269  A    between atoms: _656  and  _659
REMARK  270  A    between atoms: _659  and  _660
REMARK  271  A    between atoms: _663  and  _665
REMARK  272  A    between atoms: _665  and  _666
REMARK  273  A    between atoms: _668  and  _670
REMARK  274  A    between atoms: _670  and  _671
REMARK  275  A    between atoms: _670  and  _673
REMARK  276  A    between atoms: _673  and  _674
REMARK  277  A    between atoms: _677  and  _679
REMARK  278  A    between atoms: _679  and  _680
REMARK  279  A    between atoms: _679  and  _682
REMARK  280  A    between atoms: _685  and  _687
REMARK  281  A    between atoms: _687  and  _688
REMARK  282  A    between atoms: _690  and  _692
REMARK  283  A    between atoms: _692  and  _693
REMARK  284  A    between atoms: _696  and  _698
REMARK  285  A    between atoms: _698  and  _699
REMARK  286  A    between atoms: _698  and  _701
REMARK                            x       y       z     vdW  Elec       q    Type
REMARK                         _______ _______ _______ _____ _____    ______ ____
ROOT
ATOM      1  CA  PHE A   3      15.924  -1.392  -8.214  0.00  0.00    +0.153 C 
ENDROOT
BRANCH   1   4
ATOM      2  C   LYS A   2      13.777  -0.991  -9.270  0.00  0.00    +0.241 C 
ATOM      3  O   LYS A   2      13.226  -0.756  -8.180  0.00  0.00    -0.273 OA
ATOM      4  N   PHE A   3      15.068  -1.303  -9.383  0.00  0.00    -0.297 N 
ATOM      5  H   PHE A   3      15.469  -1.486 -10.325  0.00  0.00    +0.150 HD
BRANCH   2   6
ATOM      6  CA  LYS A   2      12.967  -0.946 -10.594  0.00  0.00    +0.149 C 
BRANCH   6   9
ATOM      7  C   ASP A   1      13.543  -3.229 -11.316  0.00  0.00    +0.239 C 
ATOM      8  O   ASP A   1      13.282  -3.717 -10.217  0.00  0.00    -0.274 OA
ATOM      9  N   LYS A   2      13.421  -1.934 -11.594  0.00  0.00    -0.297 N 
ATOM     10  H   LYS A   2      13.654  -1.604 -12.552  0.00  0.00    +0.150 HD
BRANCH   7  11
ATOM     11  CA  ASP A   1      14.018  -4.131 -12.448  0.00  0.00    +0.156 C 
BRANCH  11  12
ATOM     12  N   ASP A   1      15.228  -4.809 -12.016  0.00  0.00    -0.238 NA
ATOM     13  H   ASP A   1      15.362  -5.030 -11.009  0.00  0.00    +0.142 HD
ENDBRANCH  11  12
BRANCH  11  14
ATOM     14  CB  ASP A   1      12.931  -5.187 -12.786  0.00  0.00    +0.140 C 
BRANCH  14  15
ATOM     15  CG  ASP A   1      11.650  -4.567 -13.344  0.00  0.00    +0.367 C 
ATOM     16  OD2 ASP A   1      11.587  -3.335 -13.529  0.00  0.00    -0.246 OA
ATOM     17  OD1 ASP A   1      10.704  -5.333 -13.614  0.00  0.00    -0.246 OA
ENDBRANCH  14  15
ENDBRANCH  11  14
ENDBRANCH   7  11
ENDBRANCH   6   9
BRANCH   6  18
ATOM     18  CB  LYS A   2      11.497  -1.171 -10.282  0.00  0.00    +0.029 C 
BRANCH  18  19
ATOM     19  CG  LYS A   2      10.554  -0.831 -11.440  0.00  0.00    +0.000 C 
BRANCH  19  20
ATOM     20  CD  LYS A   2       9.141  -1.299 -11.091  0.00  0.00    -0.024 C 
BRANCH  20  21
ATOM     21  CE  LYS A   2       8.106  -0.928 -12.152  0.00  0.00    -0.086 C 
BRANCH  21  22
ATOM     22  NZ  LYS A   2       6.749  -1.352 -11.686  0.00  0.00    +0.380 N 
ATOM     23  HZ1 LYS A   2       6.523  -0.868 -10.794  0.00  0.00    -0.089 HD
ATOM     24  HZ2 LYS A   2       6.741  -2.381 -11.535  0.00  0.00    -0.089 HD
ATOM     25  HZ3 LYS A   2       6.042  -1.101 -12.406  0.00  0.00    -0.089 HD
ENDBRANCH  21  22
ENDBRANCH  20  21
ENDBRANCH  19  20
ENDBRANCH  18  19
ENDBRANCH   6  18
ENDBRANCH   2   6
ENDBRANCH   1   4
BRANCH   1  26
ATOM     26  C   PHE A   3      16.858  -0.177  -8.140  0.00  0.00    +0.241 C 
ATOM     27  O   PHE A   3      16.817   0.581  -7.184  0.00  0.00    -0.273 OA
ATOM     28  N   PHE A   4      17.695   0.017  -9.148  0.00  0.00    -0.297 N 
ATOM     29  H   PHE A   4      17.715  -0.654  -9.942  0.00  0.00    +0.150 HD
BRANCH  28  30
ATOM     30  CA  PHE A   4      18.590   1.171  -9.146  0.00  0.00    +0.153 C 
BRANCH  30  31
ATOM     31  C   PHE A   4      17.770   2.439  -9.422  0.00  0.00    +0.241 C 
ATOM     32  N   ILE A   5      18.206   3.560  -8.870  0.00  0.00    -0.298 N 
ATOM     33  H   ILE A   5      19.078   3.546  -8.303  0.00  0.00    +0.150 HD
ATOM     34  O   PHE A   4      16.753   2.401 -10.120  0.00  0.00    -0.273 OA
BRANCH  32  35
ATOM     35  CA  ILE A   5      17.483   4.815  -9.045  0.00  0.00    +0.137 C 
BRANCH  35  36
ATOM     36  C   ILE A   5      18.327   5.829  -9.768  0.00  0.00    +0.227 C 
ATOM     37  O   ILE A   5      19.465   6.067  -9.393  0.00  0.00    -0.286 OA
ENDBRANCH  35  36
BRANCH  35  38
ATOM     38  CB  ILE A   5      17.064   5.393  -7.666  0.00  0.00    +0.026 C 
ATOM     39  CG2 ILE A   5      16.417   6.794  -7.838  0.00  0.00    +0.002 C 
BRANCH  38  40
ATOM     40  CG1 ILE A   5      16.105   4.417  -6.983  0.00  0.00    +0.002 C 
ATOM     41  CD1 ILE A   5      15.704   4.867  -5.606  0.00  0.00    +0.000 C 
ENDBRANCH  38  40
ENDBRANCH  35  38
ENDBRANCH  32  35
ENDBRANCH  30  31
BRANCH  30  42
ATOM     42  CB  PHE A   4      19.666   0.982 -10.194  0.00  0.00    +0.055 C 
BRANCH  42  43
ATOM     43  CG  PHE A   4      20.550  -0.193  -9.922  0.00  0.00    -0.020 A 
ATOM     44  CD2 PHE A   4      21.418  -0.174  -8.817  0.00  0.00    -0.004 A 
ATOM     45  CE2 PHE A   4      22.277  -1.254  -8.559  0.00  0.00    -0.000 A 
ATOM     46  CZ  PHE A   4      22.280  -2.354  -9.380  0.00  0.00    -0.000 A 
ATOM     47  CE1 PHE A   4      21.401  -2.398 -10.499  0.00  0.00    -0.000 A 
ATOM     48  CD1 PHE A   4      20.537  -1.306 -10.759  0.00  0.00    -0.004 A 
ENDBRANCH  42  43
ENDBRANCH  30  42
ENDBRANCH  28  30
ENDBRANCH   1  26
BRANCH   1  49
ATOM     49  CB  PHE A   3      16.735  -2.693  -8.246  0.00  0.00    +0.055 C 
BRANCH  49  50
ATOM     50  CG  PHE A   3      17.673  -2.848  -7.049  0.00  0.00    -0.020 A 
ATOM     51  CD2 PHE A   3      17.150  -2.979  -5.750  0.00  0.00    -0.004 A 
ATOM     52  CE2 PHE A   3      18.002  -3.117  -4.640  0.00  0.00    -0.000 A 
ATOM     53  CZ  PHE A   3      19.387  -3.118  -4.827  0.00  0.00    -0.000 A 
ATOM     54  CE1 PHE A   3      19.927  -2.986  -6.105  0.00  0.00    -0.000 A 
ATOM     55  CD1 PHE A   3      19.064  -2.853  -7.224  0.00  0.00    -0.004 A 
ENDBRANCH  49  50
ENDBRANCH   1  49
TORSDOF 23
REMARK  Name = ../refined-set-2016/1fkn/1fkn_pocket.pdb
REMARK  286 active torsions:
REMARK  status: ('A' for Active; 'I' for Inactive)
REMARK    1  A    between atoms: _1  and  _3
REMARK    2  A    between atoms: _3  and  _4
REMARK    3  A    between atoms: _3  and  _6
REMARK    4  A    between atoms: _6  and  _7
REMARK    5  A    between atoms: _7  and  _8
REMARK    6  A    between atoms: _8  and  _9
REMARK    7  A    between atoms: _9  and  _10
REMARK    8  A    between atoms: _14  and  _16
REMARK    9  A    between atoms: _16  and  _17
REMARK   10  A    between atoms: _16  and  _19
REMARK   11  A    between atoms: _19  and  _20
REMARK   12  A    between atoms: _22  and  _24
REMARK   13  A    between atoms: _24  and  _25
REMARK   14  A    between atoms: _27  and  _29
REMARK   15  A    between atoms: _29  and  _30
REMARK   16  A    between atoms: _29  and  _32
REMARK   17  A    between atoms: _32  and  _33
REMARK   18  A    between atoms: _33  and  _34
REMARK   19  A    between atoms: _39  and  _41
REMARK   20  A    between atoms: _41  and  _42
REMARK   21  A    between atoms: _44  and  _46
REMARK   22  A    between atoms: _46  and  _47
REMARK   23  A    between atoms: _46  and  _49
REMARK   24  A    between atoms: _49  and  _50
REMARK   25  A    between atoms: _55  and  _56
REMARK   26  A    between atoms: _58  and  _60
REMARK   27  A    between atoms: _60  and  _61
REMARK   28  A    between atoms: _60  and  _63
REMARK   29  A    between atoms: _63  and  _64
REMARK   30  A    between atoms: _67  and  _69
REMARK   31  A    between atoms: _69  and  _70
REMARK   32  A    between atoms: _69  and  _72
REMARK   33  A    between atoms: _75  and  _77
REMARK   34  A    between atoms: _77  and  _78
REMARK   35  A    between atoms: _77  and  _80
REMARK   36  A    between atoms: _80  and  _81
REMARK   37  A    between atoms: _84  and  _86
REMARK   38  A    between atoms: _86  and  _87
REMARK   39  A    between atoms: _86  and  _89
REMARK   40  A    between atoms: _89  and  _90
REMARK   41  A    between atoms: _93  and  _95
REMARK   42  A    between atoms: _95  and  _96
REMARK   43  A    between atoms: _98  and  _100
REMARK   44  A    between atoms: _100  and  _101
REMARK   45  A    between atoms: _100  and  _103
REMARK   46  A    between atoms: _103  and  _104
REMARK   47  A    between atoms: _106  and  _108
REMARK   48  A    between atoms: _108  and  _109
REMARK   49  A    between atoms: _108  and  _111
REMARK   50  A    between atoms: _111  and  _112
REMARK   51  A    between atoms: _114  and  _116
REMARK   52  A    between atoms: _116  and  _117
REMARK   53  A    between atoms: _116  and  _119
REMARK   54  A    between atoms: _119  and  _120
REMARK   55  A    between atoms: _125  and  _127
REMARK   56  A    between atoms: _127  and  _128
REMARK   57  A    between atoms: _127  and  _130
REMARK   58  A    between atoms: _130  and  _131
REMARK   59  A    between atoms: _136  and  _137
REMARK   60  A    between atoms: _139  and  _141
REMARK   61  A    between atoms: _141  and  _142
REMARK   62  A    between atoms: _141  and  _144
REMARK   63  A    between atoms: _148  and  _149
REMARK   64  A    between atoms: _154  and  _156
REMARK   65  A    between atoms: _156  and  _157
REMARK   66  A    between atoms: _156  and  _159
REMARK   67  A    between atoms: _159  and  _160
REMARK   68  A    between atoms: _165  and  _166
REMARK   69  A    between atoms: _168  and  _170
REMARK   70  A    between atoms: _170  and  _171
REMARK   71  A    between atoms: _170  and  _173
REMARK   72  A    between atoms: _173  and  _174
REMARK   73  A    between atoms: _177  and  _179
REMARK   74  A    between atoms: _179  and  _180
REMARK   75  A    between atoms: _179  and  _182
REMARK   76  A    between atoms: _182  and  _183
REMARK   77  A    between atoms: _183  and  _184
REMARK   78  A    between atoms: _189  and  _191
REMARK   79  A    between atoms: _191  and  _192
REMARK   80  A    between atoms: _194  and  _196
REMARK   81  A    between atoms: _196  and  _197
REMARK   82  A    between atoms: _196  and  _199
REMARK   83  A    between atoms: _199  and  _200
REMARK   84  A    between atoms: _200  and  _201
REMARK   85  A    between atoms: _201  and  _202
REMARK   86  A    between atoms: _202  and  _203
REMARK   87  A    between atoms: _207  and  _209
REMARK   88  A    between atoms: _209  and  _210
REMARK   89  A    between atoms: _209  and  _212
REMARK   90  A    between atoms: _212  and  _213
REMARK   91  A    between atoms: _223  and  _225
REMARK   92  A    between atoms: _225  and  _226
REMARK   93  A    between atoms: _225  and  _228
REMARK   94  A    between atoms: _228  and  _229
REMARK   95  A    between atoms: _232  and  _234
REMARK   96  A    between atoms: _234  and  _235
REMARK   97  A    between atoms: _234  and  _237
REMARK   98  A    between atoms: _237  and  _238
REMARK   99  A    between atoms: _238  and  _239
REMARK  100  A    between atoms: _239  and  _240
REMARK  101  A    between atoms: _240  and  _241
REMARK  102  A    between atoms: _245  and  _247
REMARK  103  A    between atoms: _247  and  _248
REMARK  104  A    between atoms: _247  and  _250
REMARK  105  A    between atoms: _250  and  _251
REMARK  106  A    between atoms: _257  and  _259
REMARK  107  A    between atoms: _259  and  _260
REMARK  108  A    between atoms: _259  and  _262
REMARK  109  A    between atoms: _262  and  _263
REMARK  110  A    between atoms: _269  and  _271
REMARK  111  A    between atoms: _271  and  _272
REMARK  112  A    between atoms: _271  and  _274
REMARK  113  A    between atoms: _274  and  _275
REMARK  114  A    between atoms: _278  and  _280
REMARK  115  A    between atoms: _280  and  _281
REMARK  116  A    between atoms: _280  and  _283
REMARK  117  A    between atoms: _283  and  _284
REMARK  118  A    between atoms: _286  and  _288
REMARK  119  A    between atoms: _288  and  _289
REMARK  120  A    between atoms: _288  and  _291
REMARK  121  A    between atoms: _291  and  _292
REMARK  122  A    between atoms: _302  and  _304
REMARK  123  A    between atoms: _304  and  _305
REMARK  124  A    between atoms: _307  and  _309
REMARK  125  A    between atoms: _309  and  _310
REMARK  126  A    between atoms: _309  and  _312
REMARK  127  A    between atoms: _312  and  _313
REMARK  128  A    between atoms: _316  and  _318
REMARK  129  A    between atoms: _318  and  _319
REMARK  130  A    between atoms: _318  and  _321
REMARK  131  A    between atoms: _321  and  _322
REMARK  132  A    between atoms: _325  and  _327
REMARK  133  A    between atoms: _327  and  _328
REMARK  134  A    between atoms: _330  and  _332
REMARK  135  A    between atoms: _332  and  _333
REMARK  136  A    between atoms: _332  and  _335
REMARK  137  A    between atoms: _335  and  _336
REMARK  138  A    between atoms: _339  and  _341
REMARK  139  A    between atoms: _341  and  _342
REMARK  140  A    between atoms: _345  and  _347
REMARK  141  A    between atoms: _347  and  _348
REMARK  142  A    between atoms: _347  and  _350
REMARK  143  A    between atoms: _350  and  _351
REMARK  144  A    between atoms: _356  and  _357
REMARK  145  A    between atoms: _359  and  _361
REMARK  146  A    between atoms: _361  and  _362
REMARK  147  A    between atoms: _361  and  _364
REMARK  148  A    between atoms: _364  and  _365
REMARK  149  A    between atoms: _368  and  _370
REMARK  150  A    between atoms: _370  and  _371
REMARK  151  A    between atoms: _374  and  _376
REMARK  152  A    between atoms: _376  and  _377
REMARK  153  A    between atoms: _376  and  _379
REMARK  154  A    between atoms: _379  and  _380
REMARK  155  A    between atoms: _380  and  _381
REMARK  156  A    between atoms: _381  and  _382
REMARK  157  A    between atoms: _391  and  _393
REMARK  158  A    between atoms: _393  and  _394
REMARK  159  A    between atoms: _393  and  _396
REMARK  160  A    between atoms: _396  and  _397
REMARK  161  A    between atoms: _407  and  _409
REMARK  162  A    between atoms: _409  and  _410
REMARK  163  A    between atoms: _409  and  _412
REMARK  164  A    between atoms: _412  and  _413
REMARK  165  A    between atoms: _418  and  _419
REMARK  166  A    between atoms: _421  and  _423
REMARK  167  A    between atoms: _423  and  _424
REMARK  168  A    between atoms: _423  and  _426
REMARK  169  A    between atoms: _426  and  _427
REMARK  170  A    between atoms: _430  and  _432
REMARK  171  A    between atoms: _432  and  _433
REMARK  172  A    between atoms: _432  and  _435
REMARK  173  A    between atoms: _435  and  _436
REMARK  174  A    between atoms: _436  and  _437
REMARK  175  A    between atoms: _437  and  _438
REMARK  176  A    between atoms: _438  and  _439
REMARK  177  A    between atoms: _443  and  _445
REMARK  178  A    between atoms: _445  and  _446
REMARK  179  A    between atoms: _445  and  _448
REMARK  180  A    between atoms: _448  and  _449
REMARK  181  A    between atoms: _452  and  _454
REMARK  182  A    between atoms: _454  and  _455
REMARK  183  A    between atoms: _454  and  _457
REMARK  184  A    between atoms: _460  and  _462
REMARK  185  A    between atoms: _462  and  _463
REMARK  186  A    between atoms: _462  and  _465
REMARK  187  A    between atoms: _465  and  _466
REMARK  188  A    between atoms: _469  and  _471
REMARK  189  A    between atoms: _471  and  _472
REMARK  190  A    between atoms: _471  and  _474
REMARK  191  A    between atoms: _474  and  _475
REMARK  192  A    between atoms: _477  and  _479
REMARK  193  A    between atoms: _479  and  _480
REMARK  194  A    between atoms: _482  and  _484
REMARK  195  A    between atoms: _484  and  _485
REMARK  196  A    between atoms: _484  and  _487
REMARK  197  A    between atoms: _487  and  _488
REMARK  198  A    between atoms: _491  and  _493
REMARK  199  A    between atoms: _493  and  _494
REMARK  200  A    between atoms: _493  and  _496
REMARK  201  A    between atoms: _496  and  _497
REMARK  202  A    between atoms: _500  and  _502
REMARK  203  A    between atoms: _502  and  _503
REMARK  204  A    between atoms: _502  and  _505
REMARK  205  A    between atoms: _505  and  _506
REMARK  206  A    between atoms: _511  and  _513
REMARK  207  A    between atoms: _513  and  _514
REMARK  208  A    between atoms: _513  and  _516
REMARK  209  A    between atoms: _516  and  _517
REMARK  210  A    between atoms: _520  and  _522
REMARK  211  A    between atoms: _522  and  _523
REMARK  212  A    between atoms: _522  and  _525
REMARK  213  A    between atoms: _525  and  _526
REMARK  214  A    between atoms: _526  and  _527
REMARK  215  A    between atoms: _527  and  _528
REMARK  216  A    between atoms: _537  and  _539
REMARK  217  A    between atoms: _539  and  _540
REMARK  218  A    between atoms: _539  and  _542
REMARK  219  A    between atoms: _542  and  _543
REMARK  220  A    between atoms: _546  and  _548
REMARK  221  A    between atoms: _548  and  _549
REMARK  222  A    between atoms: _551  and  _553
REMARK  223  A    between atoms: _553  and  _554
REMARK  224  A    between atoms: _553  and  _556
REMARK  225  A    between atoms: _556  and  _557
REMARK  226  A    between atoms: _557  and  _558
REMARK  227  A    between atoms: _561  and  _563
REMARK  228  A    between atoms: _563  and  _564
REMARK  229  A    between atoms: _563  and  _566
REMARK  230  A    between atoms: _566  and  _567
REMARK  231  A    between atoms: _567  and  _568
REMARK  232  A    between atoms: _568  and  _569
REMARK  233  A    between atoms: _578  and  _580
REMARK  234  A    between atoms: _580  and  _581
REMARK  235  A    between atoms: _580  and  _583
REMARK  236  A    between atoms: _583  and  _584
REMARK  237  A    between atoms: _584  and  _585
REMARK  238  A    between atoms: _585  and  _586
REMARK  239  A    between atoms: _586  and  _587
REMARK  240  A    between atoms: _591  and  _593
REMARK  241  A    between atoms: _593  and  _594
REMARK  242  A    between atoms: _593  and  _596
REMARK  243  A    between atoms: _596  and  _597
REMARK  244  A    between atoms: _603  and  _605
REMARK  245  A    between atoms: _605  and  _606
REMARK  246  A    between atoms: _609  and  _611
REMARK  247  A    between atoms: _611  and  _612
REMARK  248  A    between atoms: _611  and  _614
REMARK  249  A    between atoms: _614  and  _615
REMARK  250  A    between atoms: _618  and  _620
REMARK  251  A    between atoms: _620  and  _621
REMARK  252  A    between atoms: _620  and  _623
REMARK  253  A    between atoms: _623  and  _624
REMARK  254  A    between atoms: _626  and  _628
REMARK  255  A    between atoms: _628  and  _629
REMARK  256  A    between atoms: _628  and  _631
REMARK  257  A    between atoms: _631  and  _632
REMARK  258  A    between atoms: _632  and  _633
REMARK  259  A    between atoms: _638  and  _640
REMARK  260  A    between atoms: _640  and  _641
REMARK  261  A    between atoms: _640  and  _643
REMARK  262  A    between atoms: _643  and  _644
REMARK  263  A    between atoms: _646  and  _648
REMARK  264  A    between atoms: _648  and  _649
REMARK  265  A    between atoms: _648  and  _651
REMARK  266  A    between atoms: _651  and  _652
REMARK  267  A    between atoms: _654  and  _656
REMARK  268  A    between atoms: _656  and  _657
REMARK  269  A    between atoms: _656  and  _659
REMARK  270  A    between atoms: _659  and  _660
REMARK  271  A    between atoms: _663  and  _665
REMARK  272  A    between atoms: _665  and  _666
REMARK  273  A    between atoms: _668  and  _670
REMARK  274  A    between atoms: _670  and  _671
REMARK  275  A    between atoms: _670  and  _673
REMARK  276  A    between atoms: _673  and  _674
REMARK  277  A    between atoms: _677  and  _679
REMARK  278  A    between atoms: _679  and  _680
REMARK  279  A    between atoms: _679  and  _682
REMARK  280  A    between atoms: _685  and  _687
REMARK  281  A    between atoms: _687  and  _688
REMARK  282  A    between atoms: _690  and  _692
REMARK  283  A    between atoms: _692  and  _693
REMARK  284  A    between atoms: _696  and  _698
REMARK  285  A    between atoms: _698  and  _699
REMARK  286  A    between atoms: _698  and  _701
REMARK                            x       y       z     vdW  Elec       q    Type
REMARK                         _______ _______ _______ _____ _____    ______ ____
ROOT
ATOM      1  CA  SER A   1      20.760   8.260  -6.528  0.00  0.00    +0.163 C 
ENDROOT
BRANCH   1   2
ATOM      2  N   SER A   1      20.684   8.595  -7.964  0.00  0.00    -0.237 NA
ATOM      3  H   SER A   1      20.524   7.828  -8.648  0.00  0.00    +0.142 HD
ENDBRANCH   1   2
BRANCH   1   4
ATOM      4  C   SER A   1      22.208   8.208  -6.008  0.00  0.00    +0.227 C 
ATOM      5  O   SER A   1      22.477   8.300  -4.792  0.00  0.00    -0.287 OA
ENDBRANCH   1   4
BRANCH   1   6
ATOM      6  CB  SER A   1      20.164   6.880  -6.301  0.00  0.00    +0.162 C 
BRANCH   6   7
ATOM      7  OG  SER A   1      21.089   5.923  -6.821  0.00  0.00    -0.380 OA
ATOM      8  H   SER A   1      20.728   5.011  -6.688  0.00  0.00    +0.211 HD
ENDBRANCH   6   7
ENDBRANCH   1   6
TORSDOF 4
REMARK  Name = ../refined-set-2016/1fkn/1fkn_pocket.pdb
REMARK  286 active torsions:
REMARK  status: ('A' for Active; 'I' for Inactive)
REMARK    1  A    between atoms: _1  and  _3
REMARK    2  A    between atoms: _3  and  _4
REMARK    3  A    between atoms: _3  and  _6
REMARK    4  A    between atoms: _6  and  _7
REMARK    5  A    between atoms: _7  and  _8
REMARK    6  A    between atoms: _8  and  _9
REMARK    7  A    between atoms: _9  and  _10
REMARK    8  A    between atoms: _14  and  _16
REMARK    9  A    between atoms: _16  and  _17
REMARK   10  A    between atoms: _16  and  _19
REMARK   11  A    between atoms: _19  and  _20
REMARK   12  A    between atoms: _22  and  _24
REMARK   13  A    between atoms: _24  and  _25
REMARK   14  A    between atoms: _27  and  _29
REMARK   15  A    between atoms: _29  and  _30
REMARK   16  A    between atoms: _29  and  _32
REMARK   17  A    between atoms: _32  and  _33
REMARK   18  A    between atoms: _33  and  _34
REMARK   19  A    between atoms: _39  and  _41
REMARK   20  A    between atoms: _41  and  _42
REMARK   21  A    between atoms: _44  and  _46
REMARK   22  A    between atoms: _46  and  _47
REMARK   23  A    between atoms: _46  and  _49
REMARK   24  A    between atoms: _49  and  _50
REMARK   25  A    between atoms: _55  and  _56
REMARK   26  A    between atoms: _58  and  _60
REMARK   27  A    between atoms: _60  and  _61
REMARK   28  A    between atoms: _60  and  _63
REMARK   29  A    between atoms: _63  and  _64
REMARK   30  A    between atoms: _67  and  _69
REMARK   31  A    between atoms: _69  and  _70
REMARK   32  A    between atoms: _69  and  _72
REMARK   33  A    between atoms: _75  and  _77
REMARK   34  A    between atoms: _77  and  _78
REMARK   35  A    between atoms: _77  and  _80
REMARK   36  A    between atoms: _80  and  _81
REMARK   37  A    between atoms: _84  and  _86
REMARK   38  A    between atoms: _86  and  _87
REMARK   39  A    between atoms: _86  and  _89
REMARK   40  A    between atoms: _89  and  _90
REMARK   41  A    between atoms: _93  and  _95
REMARK   42  A    between atoms: _95  and  _96
REMARK   43  A    between atoms: _98  and  _100
REMARK   44  A    between atoms: _100  and  _101
REMARK   45  A    between atoms: _100  and  _103
REMARK   46  A    between atoms: _103  and  _104
REMARK   47  A    between atoms: _106  and  _108
REMARK   48  A    between atoms: _108  and  _109
REMARK   49  A    between atoms: _108  and  _111
REMARK   50  A    between atoms: _111  and  _112
REMARK   51  A    between atoms: _114  and  _116
REMARK   52  A    between atoms: _116  and  _117
REMARK   53  A    between atoms: _116  and  _119
REMARK   54  A    between atoms: _119  and  _120
REMARK   55  A    between atoms: _125  and  _127
REMARK   56  A    between atoms: _127  and  _128
REMARK   57  A    between atoms: _127  and  _130
REMARK   58  A    between atoms: _130  and  _131
REMARK   59  A    between atoms: _136  and  _137
REMARK   60  A    between atoms: _139  and  _141
REMARK   61  A    between atoms: _141  and  _142
REMARK   62  A    between atoms: _141  and  _144
REMARK   63  A    between atoms: _148  and  _149
REMARK   64  A    between atoms: _154  and  _156
REMARK   65  A    between atoms: _156  and  _157
REMARK   66  A    between atoms: _156  and  _159
REMARK   67  A    between atoms: _159  and  _160
REMARK   68  A    between atoms: _165  and  _166
REMARK   69  A    between atoms: _168  and  _170
REMARK   70  A    between atoms: _170  and  _171
REMARK   71  A    between atoms: _170  and  _173
REMARK   72  A    between atoms: _173  and  _174
REMARK   73  A    between atoms: _177  and  _179
REMARK   74  A    between atoms: _179  and  _180
REMARK   75  A    between atoms: _179  and  _182
REMARK   76  A    between atoms: _182  and  _183
REMARK   77  A    between atoms: _183  and  _184
REMARK   78  A    between atoms: _189  and  _191
REMARK   79  A    between atoms: _191  and  _192
REMARK   80  A    between atoms: _194  and  _196
REMARK   81  A    between atoms: _196  and  _197
REMARK   82  A    between atoms: _196  and  _199
REMARK   83  A    between atoms: _199  and  _200
REMARK   84  A    between atoms: _200  and  _201
REMARK   85  A    between atoms: _201  and  _202
REMARK   86  A    between atoms: _202  and  _203
REMARK   87  A    between atoms: _207  and  _209
REMARK   88  A    between atoms: _209  and  _210
REMARK   89  A    between atoms: _209  and  _212
REMARK   90  A    between atoms: _212  and  _213
REMARK   91  A    between atoms: _223  and  _225
REMARK   92  A    between atoms: _225  and  _226
REMARK   93  A    between atoms: _225  and  _228
REMARK   94  A    between atoms: _228  and  _229
REMARK   95  A    between atoms: _232  and  _234
REMARK   96  A    between atoms: _234  and  _235
REMARK   97  A    between atoms: _234  and  _237
REMARK   98  A    between atoms: _237  and  _238
REMARK   99  A    between atoms: _238  and  _239
REMARK  100  A    between atoms: _239  and  _240
REMARK  101  A    between atoms: _240  and  _241
REMARK  102  A    between atoms: _245  and  _247
REMARK  103  A    between atoms: _247  and  _248
REMARK  104  A    between atoms: _247  and  _250
REMARK  105  A    between atoms: _250  and  _251
REMARK  106  A    between atoms: _257  and  _259
REMARK  107  A    between atoms: _259  and  _260
REMARK  108  A    between atoms: _259  and  _262
REMARK  109  A    between atoms: _262  and  _263
REMARK  110  A    between atoms: _269  and  _271
REMARK  111  A    between atoms: _271  and  _272
REMARK  112  A    between atoms: _271  and  _274
REMARK  113  A    between atoms: _274  and  _275
REMARK  114  A    between atoms: _278  and  _280
REMARK  115  A    between atoms: _280  and  _281
REMARK  116  A    between atoms: _280  and  _283
REMARK  117  A    between atoms: _283  and  _284
REMARK  118  A    between atoms: _286  and  _288
REMARK  119  A    between atoms: _288  and  _289
REMARK  120  A    between atoms: _288  and  _291
REMARK  121  A    between atoms: _291  and  _292
REMARK  122  A    between atoms: _302  and  _304
REMARK  123  A    between atoms: _304  and  _305
REMARK  124  A    between atoms: _307  and  _309
REMARK  125  A    between atoms: _309  and  _310
REMARK  126  A    between atoms: _309  and  _312
REMARK  127  A    between atoms: _312  and  _313
REMARK  128  A    between atoms: _316  and  _318
REMARK  129  A    between atoms: _318  and  _319
REMARK  130  A    between atoms: _318  and  _321
REMARK  131  A    between atoms: _321  and  _322
REMARK  132  A    between atoms: _325  and  _327
REMARK  133  A    between atoms: _327  and  _328
REMARK  134  A    between atoms: _330  and  _332
REMARK  135  A    between atoms: _332  and  _333
REMARK  136  A    between atoms: _332  and  _335
REMARK  137  A    between atoms: _335  and  _336
REMARK  138  A    between atoms: _339  and  _341
REMARK  139  A    between atoms: _341  and  _342
REMARK  140  A    between atoms: _345  and  _347
REMARK  141  A    between atoms: _347  and  _348
REMARK  142  A    between atoms: _347  and  _350
REMARK  143  A    between atoms: _350  and  _351
REMARK  144  A    between atoms: _356  and  _357
REMARK  145  A    between atoms: _359  and  _361
REMARK  146  A    between atoms: _361  and  _362
REMARK  147  A    between atoms: _361  and  _364
REMARK  148  A    between atoms: _364  and  _365
REMARK  149  A    between atoms: _368  and  _370
REMARK  150  A    between atoms: _370  and  _371
REMARK  151  A    between atoms: _374  and  _376
REMARK  152  A    between atoms: _376  and  _377
REMARK  153  A    between atoms: _376  and  _379
REMARK  154  A    between atoms: _379  and  _380
REMARK  155  A    between atoms: _380  and  _381
REMARK  156  A    between atoms: _381  and  _382
REMARK  157  A    between atoms: _391  and  _393
REMARK  158  A    between atoms: _393  and  _394
REMARK  159  A    between atoms: _393  and  _396
REMARK  160  A    between atoms: _396  and  _397
REMARK  161  A    between atoms: _407  and  _409
REMARK  162  A    between atoms: _409  and  _410
REMARK  163  A    between atoms: _409  and  _412
REMARK  164  A    between atoms: _412  and  _413
REMARK  165  A    between atoms: _418  and  _419
REMARK  166  A    between atoms: _421  and  _423
REMARK  167  A    between atoms: _423  and  _424
REMARK  168  A    between atoms: _423  and  _426
REMARK  169  A    between atoms: _426  and  _427
REMARK  170  A    between atoms: _430  and  _432
REMARK  171  A    between atoms: _432  and  _433
REMARK  172  A    between atoms: _432  and  _435
REMARK  173  A    between atoms: _435  and  _436
REMARK  174  A    between atoms: _436  and  _437
REMARK  175  A    between atoms: _437  and  _438
REMARK  176  A    between atoms: _438  and  _439
REMARK  177  A    between atoms: _443  and  _445
REMARK  178  A    between atoms: _445  and  _446
REMARK  179  A    between atoms: _445  and  _448
REMARK  180  A    between atoms: _448  and  _449
REMARK  181  A    between atoms: _452  and  _454
REMARK  182  A    between atoms: _454  and  _455
REMARK  183  A    between atoms: _454  and  _457
REMARK  184  A    between atoms: _460  and  _462
REMARK  185  A    between atoms: _462  and  _463
REMARK  186  A    between atoms: _462  and  _465
REMARK  187  A    between atoms: _465  and  _466
REMARK  188  A    between atoms: _469  and  _471
REMARK  189  A    between atoms: _471  and  _472
REMARK  190  A    between atoms: _471  and  _474
REMARK  191  A    between atoms: _474  and  _475
REMARK  192  A    between atoms: _477  and  _479
REMARK  193  A    between atoms: _479  and  _480
REMARK  194  A    between atoms: _482  and  _484
REMARK  195  A    between atoms: _484  and  _485
REMARK  196  A    between atoms: _484  and  _487
REMARK  197  A    between atoms: _487  and  _488
REMARK  198  A    between atoms: _491  and  _493
REMARK  199  A    between atoms: _493  and  _494
REMARK  200  A    between atoms: _493  and  _496
REMARK  201  A    between atoms: _496  and  _497
REMARK  202  A    between atoms: _500  and  _502
REMARK  203  A    between atoms: _502  and  _503
REMARK  204  A    between atoms: _502  and  _505
REMARK  205  A    between atoms: _505  and  _506
REMARK  206  A    between atoms: _511  and  _513
REMARK  207  A    between atoms: _513  and  _514
REMARK  208  A    between atoms: _513  and  _516
REMARK  209  A    between atoms: _516  and  _517
REMARK  210  A    between atoms: _520  and  _522
REMARK  211  A    between atoms: _522  and  _523
REMARK  212  A    between atoms: _522  and  _525
REMARK  213  A    between atoms: _525  and  _526
REMARK  214  A    between atoms: _526  and  _527
REMARK  215  A    between atoms: _527  and  _528
REMARK  216  A    between atoms: _537  and  _539
REMARK  217  A    between atoms: _539  and  _540
REMARK  218  A    between atoms: _539  and  _542
REMARK  219  A    between atoms: _542  and  _543
REMARK  220  A    between atoms: _546  and  _548
REMARK  221  A    between atoms: _548  and  _549
REMARK  222  A    between atoms: _551  and  _553
REMARK  223  A    between atoms: _553  and  _554
REMARK  224  A    between atoms: _553  and  _556
REMARK  225  A    between atoms: _556  and  _557
REMARK  226  A    between atoms: _557  and  _558
REMARK  227  A    between atoms: _561  and  _563
REMARK  228  A    between atoms: _563  and  _564
REMARK  229  A    between atoms: _563  and  _566
REMARK  230  A    between atoms: _566  and  _567
REMARK  231  A    between atoms: _567  and  _568
REMARK  232  A    between atoms: _568  and  _569
REMARK  233  A    between atoms: _578  and  _580
REMARK  234  A    between atoms: _580  and  _581
REMARK  235  A    between atoms: _580  and  _583
REMARK  236  A    between atoms: _583  and  _584
REMARK  237  A    between atoms: _584  and  _585
REMARK  238  A    between atoms: _585  and  _586
REMARK  239  A    between atoms: _586  and  _587
REMARK  240  A    between atoms: _591  and  _593
REMARK  241  A    between atoms: _593  and  _594
REMARK  242  A    between atoms: _593  and  _596
REMARK  243  A    between atoms: _596  and  _597
REMARK  244  A    between atoms: _603  and  _605
REMARK  245  A    between atoms: _605  and  _606
REMARK  246  A    between atoms: _609  and  _611
REMARK  247  A    between atoms: _611  and  _612
REMARK  248  A    between atoms: _611  and  _614
REMARK  249  A    between atoms: _614  and  _615
REMARK  250  A    between atoms: _618  and  _620
REMARK  251  A    between atoms: _620  and  _621
REMARK  252  A    between atoms: _620  and  _623
REMARK  253  A    between atoms: _623  and  _624
REMARK  254  A    between atoms: _626  and  _628
REMARK  255  A    between atoms: _628  and  _629
REMARK  256  A    between atoms: _628  and  _631
REMARK  257  A    between atoms: _631  and  _632
REMARK  258  A    between atoms: _632  and  _633
REMARK  259  A    between atoms: _638  and  _640
REMARK  260  A    between atoms: _640  and  _641
REMARK  261  A    between atoms: _640  and  _643
REMARK  262  A    between atoms: _643  and  _644
REMARK  263  A    between atoms: _646  and  _648
REMARK  264  A    between atoms: _648  and  _649
REMARK  265  A    between atoms: _648  and  _651
REMARK  266  A    between atoms: _651  and  _652
REMARK  267  A    between atoms: _654  and  _656
REMARK  268  A    between atoms: _656  and  _657
REMARK  269  A    between atoms: _656  and  _659
REMARK  270  A    between atoms: _659  and  _660
REMARK  271  A    between atoms: _663  and  _665
REMARK  272  A    between atoms: _665  and  _666
REMARK  273  A    between atoms: _668  and  _670
REMARK  274  A    between atoms: _670  and  _671
REMARK  275  A    between atoms: _670  and  _673
REMARK  276  A    between atoms: _673  and  _674
REMARK  277  A    between atoms: _677  and  _679
REMARK  278  A    between atoms: _679  and  _680
REMARK  279  A    between atoms: _679  and  _682
REMARK  280  A    between atoms: _685  and  _687
REMARK  281  A    between atoms: _687  and  _688
REMARK  282  A    between atoms: _690  and  _692
REMARK  283  A    between atoms: _692  and  _693
REMARK  284  A    between atoms: _696  and  _698
REMARK  285  A    between atoms: _698  and  _699
REMARK  286  A    between atoms: _698  and  _701
REMARK                            x       y       z     vdW  Elec       q    Type
REMARK                         _______ _______ _______ _____ _____    ______ ____
ROOT
ATOM      1  CG  TRP A   1      22.191   3.984  -3.920  0.00  0.00    -0.002 A 
ATOM      2  CD1 TRP A   1      21.338   4.992  -3.531  0.00  0.00    +0.068 A 
ATOM      3  NE1 TRP A   1      20.044   4.594  -3.694  0.00  0.00    -0.352 N 
ATOM      4  HE1 TRP A   1      19.207   5.167  -3.466  0.00  0.00    +0.166 HD
ATOM      5  CE2 TRP A   1      20.017   3.320  -4.206  0.00  0.00    +0.056 A 
ATOM      6  CZ2 TRP A   1      18.918   2.505  -4.547  0.00  0.00    +0.017 A 
ATOM      7  CH2 TRP A   1      19.180   1.248  -5.041  0.00  0.00    +0.001 A 
ATOM      8  CZ3 TRP A   1      20.510   0.787  -5.200  0.00  0.00    +0.000 A 
ATOM      9  CE3 TRP A   1      21.612   1.615  -4.862  0.00  0.00    +0.001 A 
ATOM     10  CD2 TRP A   1      21.356   2.899  -4.359  0.00  0.00    +0.013 A 
ENDROOT
BRANCH   1  11
ATOM     11  CB  TRP A   1      23.667   3.993  -3.826  0.00  0.00    +0.053 C 
BRANCH  11  12
ATOM     12  CA  TRP A   1      24.484   4.389  -5.086  0.00  0.00    +0.137 C 
BRANCH  12  13
ATOM     13  N   TRP A   1      24.045   5.640  -5.720  0.00  0.00    -0.239 NA
ATOM     14  H   TRP A   1      23.048   5.782  -5.978  0.00  0.00    +0.142 HD
ENDBRANCH  12  13
BRANCH  12  15
ATOM     15  C   TRP A   1      24.465   3.291  -6.125  0.00  0.00    +0.224 C 
ATOM     16  O   TRP A   1      23.700   3.352  -7.092  0.00  0.00    -0.287 OA
ENDBRANCH  12  15
ENDBRANCH  11  12
ENDBRANCH   1  11
TORSDOF 4
REMARK  Name = ../refined-set-2016/1fkn/1fkn_pocket.pdb
REMARK  286 active torsions:
REMARK  status: ('A' for Active; 'I' for Inactive)
REMARK    1  A    between atoms: _1  and  _3
REMARK    2  A    between atoms: _3  and  _4
REMARK    3  A    between atoms: _3  and  _6
REMARK    4  A    between atoms: _6  and  _7
REMARK    5  A    between atoms: _7  and  _8
REMARK    6  A    between atoms: _8  and  _9
REMARK    7  A    between atoms: _9  and  _10
REMARK    8  A    between atoms: _14  and  _16
REMARK    9  A    between atoms: _16  and  _17
REMARK   10  A    between atoms: _16  and  _19
REMARK   11  A    between atoms: _19  and  _20
REMARK   12  A    between atoms: _22  and  _24
REMARK   13  A    between atoms: _24  and  _25
REMARK   14  A    between atoms: _27  and  _29
REMARK   15  A    between atoms: _29  and  _30
REMARK   16  A    between atoms: _29  and  _32
REMARK   17  A    between atoms: _32  and  _33
REMARK   18  A    between atoms: _33  and  _34
REMARK   19  A    between atoms: _39  and  _41
REMARK   20  A    between atoms: _41  and  _42
REMARK   21  A    between atoms: _44  and  _46
REMARK   22  A    between atoms: _46  and  _47
REMARK   23  A    between atoms: _46  and  _49
REMARK   24  A    between atoms: _49  and  _50
REMARK   25  A    between atoms: _55  and  _56
REMARK   26  A    between atoms: _58  and  _60
REMARK   27  A    between atoms: _60  and  _61
REMARK   28  A    between atoms: _60  and  _63
REMARK   29  A    between atoms: _63  and  _64
REMARK   30  A    between atoms: _67  and  _69
REMARK   31  A    between atoms: _69  and  _70
REMARK   32  A    between atoms: _69  and  _72
REMARK   33  A    between atoms: _75  and  _77
REMARK   34  A    between atoms: _77  and  _78
REMARK   35  A    between atoms: _77  and  _80
REMARK   36  A    between atoms: _80  and  _81
REMARK   37  A    between atoms: _84  and  _86
REMARK   38  A    between atoms: _86  and  _87
REMARK   39  A    between atoms: _86  and  _89
REMARK   40  A    between atoms: _89  and  _90
REMARK   41  A    between atoms: _93  and  _95
REMARK   42  A    between atoms: _95  and  _96
REMARK   43  A    between atoms: _98  and  _100
REMARK   44  A    between atoms: _100  and  _101
REMARK   45  A    between atoms: _100  and  _103
REMARK   46  A    between atoms: _103  and  _104
REMARK   47  A    between atoms: _106  and  _108
REMARK   48  A    between atoms: _108  and  _109
REMARK   49  A    between atoms: _108  and  _111
REMARK   50  A    between atoms: _111  and  _112
REMARK   51  A    between atoms: _114  and  _116
REMARK   52  A    between atoms: _116  and  _117
REMARK   53  A    between atoms: _116  and  _119
REMARK   54  A    between atoms: _119  and  _120
REMARK   55  A    between atoms: _125  and  _127
REMARK   56  A    between atoms: _127  and  _128
REMARK   57  A    between atoms: _127  and  _130
REMARK   58  A    between atoms: _130  and  _131
REMARK   59  A    between atoms: _136  and  _137
REMARK   60  A    between atoms: _139  and  _141
REMARK   61  A    between atoms: _141  and  _142
REMARK   62  A    between atoms: _141  and  _144
REMARK   63  A    between atoms: _148  and  _149
REMARK   64  A    between atoms: _154  and  _156
REMARK   65  A    between atoms: _156  and  _157
REMARK   66  A    between atoms: _156  and  _159
REMARK   67  A    between atoms: _159  and  _160
REMARK   68  A    between atoms: _165  and  _166
REMARK   69  A    between atoms: _168  and  _170
REMARK   70  A    between atoms: _170  and  _171
REMARK   71  A    between atoms: _170  and  _173
REMARK   72  A    between atoms: _173  and  _174
REMARK   73  A    between atoms: _177  and  _179
REMARK   74  A    between atoms: _179  and  _180
REMARK   75  A    between atoms: _179  and  _182
REMARK   76  A    between atoms: _182  and  _183
REMARK   77  A    between atoms: _183  and  _184
REMARK   78  A    between atoms: _189  and  _191
REMARK   79  A    between atoms: _191  and  _192
REMARK   80  A    between atoms: _194  and  _196
REMARK   81  A    between atoms: _196  and  _197
REMARK   82  A    between atoms: _196  and  _199
REMARK   83  A    between atoms: _199  and  _200
REMARK   84  A    between atoms: _200  and  _201
REMARK   85  A    between atoms: _201  and  _202
REMARK   86  A    between atoms: _202  and  _203
REMARK   87  A    between atoms: _207  and  _209
REMARK   88  A    between atoms: _209  and  _210
REMARK   89  A    between atoms: _209  and  _212
REMARK   90  A    between atoms: _212  and  _213
REMARK   91  A    between atoms: _223  and  _225
REMARK   92  A    between atoms: _225  and  _226
REMARK   93  A    between atoms: _225  and  _228
REMARK   94  A    between atoms: _228  and  _229
REMARK   95  A    between atoms: _232  and  _234
REMARK   96  A    between atoms: _234  and  _235
REMARK   97  A    between atoms: _234  and  _237
REMARK   98  A    between atoms: _237  and  _238
REMARK   99  A    between atoms: _238  and  _239
REMARK  100  A    between atoms: _239  and  _240
REMARK  101  A    between atoms: _240  and  _241
REMARK  102  A    between atoms: _245  and  _247
REMARK  103  A    between atoms: _247  and  _248
REMARK  104  A    between atoms: _247  and  _250
REMARK  105  A    between atoms: _250  and  _251
REMARK  106  A    between atoms: _257  and  _259
REMARK  107  A    between atoms: _259  and  _260
REMARK  108  A    between atoms: _259  and  _262
REMARK  109  A    between atoms: _262  and  _263
REMARK  110  A    between atoms: _269  and  _271
REMARK  111  A    between atoms: _271  and  _272
REMARK  112  A    between atoms: _271  and  _274
REMARK  113  A    between atoms: _274  and  _275
REMARK  114  A    between atoms: _278  and  _280
REMARK  115  A    between atoms: _280  and  _281
REMARK  116  A    between atoms: _280  and  _283
REMARK  117  A    between atoms: _283  and  _284
REMARK  118  A    between atoms: _286  and  _288
REMARK  119  A    between atoms: _288  and  _289
REMARK  120  A    between atoms: _288  and  _291
REMARK  121  A    between atoms: _291  and  _292
REMARK  122  A    between atoms: _302  and  _304
REMARK  123  A    between atoms: _304  and  _305
REMARK  124  A    between atoms: _307  and  _309
REMARK  125  A    between atoms: _309  and  _310
REMARK  126  A    between atoms: _309  and  _312
REMARK  127  A    between atoms: _312  and  _313
REMARK  128  A    between atoms: _316  and  _318
REMARK  129  A    between atoms: _318  and  _319
REMARK  130  A    between atoms: _318  and  _321
REMARK  131  A    between atoms: _321  and  _322
REMARK  132  A    between atoms: _325  and  _327
REMARK  133  A    between atoms: _327  and  _328
REMARK  134  A    between atoms: _330  and  _332
REMARK  135  A    between atoms: _332  and  _333
REMARK  136  A    between atoms: _332  and  _335
REMARK  137  A    between atoms: _335  and  _336
REMARK  138  A    between atoms: _339  and  _341
REMARK  139  A    between atoms: _341  and  _342
REMARK  140  A    between atoms: _345  and  _347
REMARK  141  A    between atoms: _347  and  _348
REMARK  142  A    between atoms: _347  and  _350
REMARK  143  A    between atoms: _350  and  _351
REMARK  144  A    between atoms: _356  and  _357
REMARK  145  A    between atoms: _359  and  _361
REMARK  146  A    between atoms: _361  and  _362
REMARK  147  A    between atoms: _361  and  _364
REMARK  148  A    between atoms: _364  and  _365
REMARK  149  A    between atoms: _368  and  _370
REMARK  150  A    between atoms: _370  and  _371
REMARK  151  A    between atoms: _374  and  _376
REMARK  152  A    between atoms: _376  and  _377
REMARK  153  A    between atoms: _376  and  _379
REMARK  154  A    between atoms: _379  and  _380
REMARK  155  A    between atoms: _380  and  _381
REMARK  156  A    between atoms: _381  and  _382
REMARK  157  A    between atoms: _391  and  _393
REMARK  158  A    between atoms: _393  and  _394
REMARK  159  A    between atoms: _393  and  _396
REMARK  160  A    between atoms: _396  and  _397
REMARK  161  A    between atoms: _407  and  _409
REMARK  162  A    between atoms: _409  and  _410
REMARK  163  A    between atoms: _409  and  _412
REMARK  164  A    between atoms: _412  and  _413
REMARK  165  A    between atoms: _418  and  _419
REMARK  166  A    between atoms: _421  and  _423
REMARK  167  A    between atoms: _423  and  _424
REMARK  168  A    between atoms: _423  and  _426
REMARK  169  A    between atoms: _426  and  _427
REMARK  170  A    between atoms: _430  and  _432
REMARK  171  A    between atoms: _432  and  _433
REMARK  172  A    between atoms: _432  and  _435
REMARK  173  A    between atoms: _435  and  _436
REMARK  174  A    between atoms: _436  and  _437
REMARK  175  A    between atoms: _437  and  _438
REMARK  176  A    between atoms: _438  and  _439
REMARK  177  A    between atoms: _443  and  _445
REMARK  178  A    between atoms: _445  and  _446
REMARK  179  A    between atoms: _445  and  _448
REMARK  180  A    between atoms: _448  and  _449
REMARK  181  A    between atoms: _452  and  _454
REMARK  182  A    between atoms: _454  and  _455
REMARK  183  A    between atoms: _454  and  _457
REMARK  184  A    between atoms: _460  and  _462
REMARK  185  A    between atoms: _462  and  _463
REMARK  186  A    between atoms: _462  and  _465
REMARK  187  A    between atoms: _465  and  _466
REMARK  188  A    between atoms: _469  and  _471
REMARK  189  A    between atoms: _471  and  _472
REMARK  190  A    between atoms: _471  and  _474
REMARK  191  A    between atoms: _474  and  _475
REMARK  192  A    between atoms: _477  and  _479
REMARK  193  A    between atoms: _479  and  _480
REMARK  194  A    between atoms: _482  and  _484
REMARK  195  A    between atoms: _484  and  _485
REMARK  196  A    between atoms: _484  and  _487
REMARK  197  A    between atoms: _487  and  _488
REMARK  198  A    between atoms: _491  and  _493
REMARK  199  A    between atoms: _493  and  _494
REMARK  200  A    between atoms: _493  and  _496
REMARK  201  A    between atoms: _496  and  _497
REMARK  202  A    between atoms: _500  and  _502
REMARK  203  A    between atoms: _502  and  _503
REMARK  204  A    between atoms: _502  and  _505
REMARK  205  A    between atoms: _505  and  _506
REMARK  206  A    between atoms: _511  and  _513
REMARK  207  A    between atoms: _513  and  _514
REMARK  208  A    between atoms: _513  and  _516
REMARK  209  A    between atoms: _516  and  _517
REMARK  210  A    between atoms: _520  and  _522
REMARK  211  A    between atoms: _522  and  _523
REMARK  212  A    between atoms: _522  and  _525
REMARK  213  A    between atoms: _525  and  _526
REMARK  214  A    between atoms: _526  and  _527
REMARK  215  A    between atoms: _527  and  _528
REMARK  216  A    between atoms: _537  and  _539
REMARK  217  A    between atoms: _539  and  _540
REMARK  218  A    between atoms: _539  and  _542
REMARK  219  A    between atoms: _542  and  _543
REMARK  220  A    between atoms: _546  and  _548
REMARK  221  A    between atoms: _548  and  _549
REMARK  222  A    between atoms: _551  and  _553
REMARK  223  A    between atoms: _553  and  _554
REMARK  224  A    between atoms: _553  and  _556
REMARK  225  A    between atoms: _556  and  _557
REMARK  226  A    between atoms: _557  and  _558
REMARK  227  A    between atoms: _561  and  _563
REMARK  228  A    between atoms: _563  and  _564
REMARK  229  A    between atoms: _563  and  _566
REMARK  230  A    between atoms: _566  and  _567
REMARK  231  A    between atoms: _567  and  _568
REMARK  232  A    between atoms: _568  and  _569
REMARK  233  A    between atoms: _578  and  _580
REMARK  234  A    between atoms: _580  and  _581
REMARK  235  A    between atoms: _580  and  _583
REMARK  236  A    between atoms: _583  and  _584
REMARK  237  A    between atoms: _584  and  _585
REMARK  238  A    between atoms: _585  and  _586
REMARK  239  A    between atoms: _586  and  _587
REMARK  240  A    between atoms: _591  and  _593
REMARK  241  A    between atoms: _593  and  _594
REMARK  242  A    between atoms: _593  and  _596
REMARK  243  A    between atoms: _596  and  _597
REMARK  244  A    between atoms: _603  and  _605
REMARK  245  A    between atoms: _605  and  _606
REMARK  246  A    between atoms: _609  and  _611
REMARK  247  A    between atoms: _611  and  _612
REMARK  248  A    between atoms: _611  and  _614
REMARK  249  A    between atoms: _614  and  _615
REMARK  250  A    between atoms: _618  and  _620
REMARK  251  A    between atoms: _620  and  _621
REMARK  252  A    between atoms: _620  and  _623
REMARK  253  A    between atoms: _623  and  _624
REMARK  254  A    between atoms: _626  and  _628
REMARK  255  A    between atoms: _628  and  _629
REMARK  256  A    between atoms: _628  and  _631
REMARK  257  A    between atoms: _631  and  _632
REMARK  258  A    between atoms: _632  and  _633
REMARK  259  A    between atoms: _638  and  _640
REMARK  260  A    between atoms: _640  and  _641
REMARK  261  A    between atoms: _640  and  _643
REMARK  262  A    between atoms: _643  and  _644
REMARK  263  A    between atoms: _646  and  _648
REMARK  264  A    between atoms: _648  and  _649
REMARK  265  A    between atoms: _648  and  _651
REMARK  266  A    between atoms: _651  and  _652
REMARK  267  A    between atoms: _654  and  _656
REMARK  268  A    between atoms: _656  and  _657
REMARK  269  A    between atoms: _656  and  _659
REMARK  270  A    between atoms: _659  and  _660
REMARK  271  A    between atoms: _663  and  _665
REMARK  272  A    between atoms: _665  and  _666
REMARK  273  A    between atoms: _668  and  _670
REMARK  274  A    between atoms: _670  and  _671
REMARK  275  A    between atoms: _670  and  _673
REMARK  276  A    between atoms: _673  and  _674
REMARK  277  A    between atoms: _677  and  _679
REMARK  278  A    between atoms: _679  and  _680
REMARK  279  A    between atoms: _679  and  _682
REMARK  280  A    between atoms: _685  and  _687
REMARK  281  A    between atoms: _687  and  _688
REMARK  282  A    between atoms: _690  and  _692
REMARK  283  A    between atoms: _692  and  _693
REMARK  284  A    between atoms: _696  and  _698
REMARK  285  A    between atoms: _698  and  _699
REMARK  286  A    between atoms: _698  and  _701
REMARK                            x       y       z     vdW  Elec       q    Type
REMARK                         _______ _______ _______ _____ _____    ______ ____
ROOT
ATOM      1  C   GLY A   4      21.973  -5.989   5.225  0.00  0.00    +0.243 C 
ATOM      2  N   LEU A   5      21.548  -5.226   6.226  0.00  0.00    -0.297 N 
ATOM      3  H   LEU A   5      20.827  -4.501   6.038  0.00  0.00    +0.150 HD
ATOM      4  O   GLY A   4      22.775  -6.919   5.367  0.00  0.00    -0.273 OA
ENDROOT
BRANCH   2   5
ATOM      5  CA  LEU A   5      22.064  -5.377   7.577  0.00  0.00    +0.149 C 
BRANCH   5   6
ATOM      6  C   LEU A   5      21.251  -6.246   8.500  0.00  0.00    +0.241 C 
ATOM      7  O   LEU A   5      21.587  -6.368   9.673  0.00  0.00    -0.273 OA
ATOM      8  N   ALA A   6      20.182  -6.852   7.990  0.00  0.00    -0.297 N 
ATOM      9  H   ALA A   6      19.940  -6.729   6.986  0.00  0.00    +0.150 HD
BRANCH   8  10
ATOM     10  CA  ALA A   6      19.353  -7.688   8.847  0.00  0.00    +0.149 C 
ATOM     11  CB  ALA A   6      17.867  -7.700   8.332  0.00  0.00    +0.031 C 
BRANCH  10  12
ATOM     12  C   ALA A   6      19.946  -9.113   8.928  0.00  0.00    +0.241 C 
ATOM     13  N   TYR A   7      19.215 -10.004   9.600  0.00  0.00    -0.298 N 
ATOM     14  H   TYR A   7      18.285  -9.709   9.960  0.00  0.00    +0.150 HD
ATOM     15  O   ALA A   6      21.023  -9.392   8.359  0.00  0.00    -0.273 OA
BRANCH  13  16
ATOM     16  CA  TYR A   7      19.659 -11.382   9.857  0.00  0.00    +0.141 C 
BRANCH  16  17
ATOM     17  C   TYR A   7      19.548 -12.434   8.737  0.00  0.00    +0.227 C 
ATOM     18  O   TYR A   7      18.774 -12.294   7.762  0.00  0.00    -0.286 OA
ENDBRANCH  16  17
BRANCH  16  19
ATOM     19  CB  TYR A   7      18.946 -11.897  11.114  0.00  0.00    +0.054 C 
BRANCH  19  20
ATOM     20  CG  TYR A   7      19.118 -10.973  12.290  0.00  0.00    -0.020 A 
ATOM     21  CD2 TYR A   7      20.241 -11.077  13.115  0.00  0.00    -0.001 A 
ATOM     22  CE2 TYR A   7      20.404 -10.253  14.236  0.00  0.00    +0.036 A 
ATOM     23  CZ  TYR A   7      19.434  -9.310  14.549  0.00  0.00    +0.134 A 
ATOM     24  CE1 TYR A   7      18.295  -9.163  13.741  0.00  0.00    +0.036 A 
ATOM     25  CD1 TYR A   7      18.147 -10.004  12.602  0.00  0.00    -0.001 A 
BRANCH  23  26
ATOM     26  OH  TYR A   7      19.583  -8.563  15.694  0.00  0.00    -0.506 OA
ATOM     27  HH  TYR A   7      19.610  -9.166  16.479  0.00  0.00    +0.292 HD
ENDBRANCH  23  26
ENDBRANCH  19  20
ENDBRANCH  16  19
ENDBRANCH  13  16
ENDBRANCH  10  12
ENDBRANCH   8  10
ENDBRANCH   5   6
BRANCH   5  28
ATOM     28  CB  LEU A   5      22.207  -3.979   8.205  0.00  0.00    +0.029 C 
BRANCH  28  29
ATOM     29  CG  LEU A   5      23.319  -3.175   7.553  0.00  0.00    +0.002 C 
ATOM     30  CD2 LEU A   5      24.681  -3.737   8.038  0.00  0.00    +0.000 C 
ATOM     31  CD1 LEU A   5      23.149  -1.696   7.883  0.00  0.00    +0.000 C 
ENDBRANCH  28  29
ENDBRANCH   5  28
ENDBRANCH   2   5
BRANCH   1  32
ATOM     32  CA  GLY A   4      21.394  -5.671   3.870  0.00  0.00    +0.176 C 
BRANCH  32  35
ATOM     33  C   LEU A   3      22.910  -3.927   3.124  0.00  0.00    +0.241 C 
ATOM     34  O   LEU A   3      22.406  -3.072   3.868  0.00  0.00    -0.273 OA
ATOM     35  N   GLY A   4      22.492  -5.191   3.049  0.00  0.00    -0.295 N 
ATOM     36  H   GLY A   4      22.961  -5.845   2.390  0.00  0.00    +0.150 HD
BRANCH  33  37
ATOM     37  CA  LEU A   3      24.042  -3.557   2.204  0.00  0.00    +0.149 C 
BRANCH  37  39
ATOM     38  C   ILE A   2      23.601  -3.320  -0.189  0.00  0.00    +0.241 C 
ATOM     39  N   LEU A   3      23.467  -2.851   1.051  0.00  0.00    -0.297 N 
ATOM     40  H   LEU A   3      22.944  -1.966   1.206  0.00  0.00    +0.150 HD
ATOM     41  O   ILE A   2      24.222  -4.349  -0.472  0.00  0.00    -0.273 OA
BRANCH  38  42
ATOM     42  CA  ILE A   2      22.948  -2.502  -1.279  0.00  0.00    +0.148 C 
BRANCH  42  44
ATOM     43  C   GLY A   1      24.037  -1.389  -3.141  0.00  0.00    +0.240 C 
ATOM     44  N   ILE A   2      23.793  -2.501  -2.468  0.00  0.00    -0.297 N 
ATOM     45  H   ILE A   2      24.213  -3.395  -2.794  0.00  0.00    +0.150 HD
ATOM     46  O   GLY A   1      23.600  -0.257  -2.799  0.00  0.00    -0.274 OA
BRANCH  43  47
ATOM     47  CA  GLY A   1      24.891  -1.546  -4.376  0.00  0.00    +0.169 C 
BRANCH  47  48
ATOM     48  N   GLY A   1      24.988  -0.257  -5.035  0.00  0.00    -0.236 NA
ATOM     49  H   GLY A   1      24.797   0.615  -4.501  0.00  0.00    +0.142 HD
ENDBRANCH  47  48
ENDBRANCH  43  47
ENDBRANCH  42  44
BRANCH  42  50
ATOM     50  CB  ILE A   2      21.548  -3.077  -1.621  0.00  0.00    +0.027 C 
ATOM     51  CG2 ILE A   2      21.674  -4.514  -2.168  0.00  0.00    +0.002 C 
BRANCH  50  52
ATOM     52  CG1 ILE A   2      20.626  -3.005  -0.412  0.00  0.00    +0.002 C 
ATOM     53  CD1 ILE A   2      19.160  -2.926  -0.776  0.00  0.00    +0.000 C 
ENDBRANCH  50  52
ENDBRANCH  42  50
ENDBRANCH  38  42
ENDBRANCH  37  39
BRANCH  37  54
ATOM     54  CB  LEU A   3      25.044  -2.662   2.960  0.00  0.00    +0.029 C 
BRANCH  54  55
ATOM     55  CG  LEU A   3      25.682  -3.322   4.203  0.00  0.00    +0.002 C 
ATOM     56  CD2 LEU A   3      26.444  -2.298   4.994  0.00  0.00    +0.000 C 
ATOM     57  CD1 LEU A   3      26.650  -4.421   3.769  0.00  0.00    +0.000 C 
ENDBRANCH  54  55
ENDBRANCH  37  54
ENDBRANCH  33  37
ENDBRANCH  32  35
ENDBRANCH   1  32
TORSDOF 23
REMARK  Name = ../refined-set-2016/1fkn/1fkn_pocket.pdb
REMARK  286 active torsions:
REMARK  status: ('A' for Active; 'I' for Inactive)
REMARK    1  A    between atoms: _1  and  _3
REMARK    2  A    between atoms: _3  and  _4
REMARK    3  A    between atoms: _3  and  _6
REMARK    4  A    between atoms: _6  and  _7
REMARK    5  A    between atoms: _7  and  _8
REMARK    6  A    between atoms: _8  and  _9
REMARK    7  A    between atoms: _9  and  _10
REMARK    8  A    between atoms: _14  and  _16
REMARK    9  A    between atoms: _16  and  _17
REMARK   10  A    between atoms: _16  and  _19
REMARK   11  A    between atoms: _19  and  _20
REMARK   12  A    between atoms: _22  and  _24
REMARK   13  A    between atoms: _24  and  _25
REMARK   14  A    between atoms: _27  and  _29
REMARK   15  A    between atoms: _29  and  _30
REMARK   16  A    between atoms: _29  and  _32
REMARK   17  A    between atoms: _32  and  _33
REMARK   18  A    between atoms: _33  and  _34
REMARK   19  A    between atoms: _39  and  _41
REMARK   20  A    between atoms: _41  and  _42
REMARK   21  A    between atoms: _44  and  _46
REMARK   22  A    between atoms: _46  and  _47
REMARK   23  A    between atoms: _46  and  _49
REMARK   24  A    between atoms: _49  and  _50
REMARK   25  A    between atoms: _55  and  _56
REMARK   26  A    between atoms: _58  and  _60
REMARK   27  A    between atoms: _60  and  _61
REMARK   28  A    between atoms: _60  and  _63
REMARK   29  A    between atoms: _63  and  _64
REMARK   30  A    between atoms: _67  and  _69
REMARK   31  A    between atoms: _69  and  _70
REMARK   32  A    between atoms: _69  and  _72
REMARK   33  A    between atoms: _75  and  _77
REMARK   34  A    between atoms: _77  and  _78
REMARK   35  A    between atoms: _77  and  _80
REMARK   36  A    between atoms: _80  and  _81
REMARK   37  A    between atoms: _84  and  _86
REMARK   38  A    between atoms: _86  and  _87
REMARK   39  A    between atoms: _86  and  _89
REMARK   40  A    between atoms: _89  and  _90
REMARK   41  A    between atoms: _93  and  _95
REMARK   42  A    between atoms: _95  and  _96
REMARK   43  A    between atoms: _98  and  _100
REMARK   44  A    between atoms: _100  and  _101
REMARK   45  A    between atoms: _100  and  _103
REMARK   46  A    between atoms: _103  and  _104
REMARK   47  A    between atoms: _106  and  _108
REMARK   48  A    between atoms: _108  and  _109
REMARK   49  A    between atoms: _108  and  _111
REMARK   50  A    between atoms: _111  and  _112
REMARK   51  A    between atoms: _114  and  _116
REMARK   52  A    between atoms: _116  and  _117
REMARK   53  A    between atoms: _116  and  _119
REMARK   54  A    between atoms: _119  and  _120
REMARK   55  A    between atoms: _125  and  _127
REMARK   56  A    between atoms: _127  and  _128
REMARK   57  A    between atoms: _127  and  _130
REMARK   58  A    between atoms: _130  and  _131
REMARK   59  A    between atoms: _136  and  _137
REMARK   60  A    between atoms: _139  and  _141
REMARK   61  A    between atoms: _141  and  _142
REMARK   62  A    between atoms: _141  and  _144
REMARK   63  A    between atoms: _148  and  _149
REMARK   64  A    between atoms: _154  and  _156
REMARK   65  A    between atoms: _156  and  _157
REMARK   66  A    between atoms: _156  and  _159
REMARK   67  A    between atoms: _159  and  _160
REMARK   68  A    between atoms: _165  and  _166
REMARK   69  A    between atoms: _168  and  _170
REMARK   70  A    between atoms: _170  and  _171
REMARK   71  A    between atoms: _170  and  _173
REMARK   72  A    between atoms: _173  and  _174
REMARK   73  A    between atoms: _177  and  _179
REMARK   74  A    between atoms: _179  and  _180
REMARK   75  A    between atoms: _179  and  _182
REMARK   76  A    between atoms: _182  and  _183
REMARK   77  A    between atoms: _183  and  _184
REMARK   78  A    between atoms: _189  and  _191
REMARK   79  A    between atoms: _191  and  _192
REMARK   80  A    between atoms: _194  and  _196
REMARK   81  A    between atoms: _196  and  _197
REMARK   82  A    between atoms: _196  and  _199
REMARK   83  A    between atoms: _199  and  _200
REMARK   84  A    between atoms: _200  and  _201
REMARK   85  A    between atoms: _201  and  _202
REMARK   86  A    between atoms: _202  and  _203
REMARK   87  A    between atoms: _207  and  _209
REMARK   88  A    between atoms: _209  and  _210
REMARK   89  A    between atoms: _209  and  _212
REMARK   90  A    between atoms: _212  and  _213
REMARK   91  A    between atoms: _223  and  _225
REMARK   92  A    between atoms: _225  and  _226
REMARK   93  A    between atoms: _225  and  _228
REMARK   94  A    between atoms: _228  and  _229
REMARK   95  A    between atoms: _232  and  _234
REMARK   96  A    between atoms: _234  and  _235
REMARK   97  A    between atoms: _234  and  _237
REMARK   98  A    between atoms: _237  and  _238
REMARK   99  A    between atoms: _238  and  _239
REMARK  100  A    between atoms: _239  and  _240
REMARK  101  A    between atoms: _240  and  _241
REMARK  102  A    between atoms: _245  and  _247
REMARK  103  A    between atoms: _247  and  _248
REMARK  104  A    between atoms: _247  and  _250
REMARK  105  A    between atoms: _250  and  _251
REMARK  106  A    between atoms: _257  and  _259
REMARK  107  A    between atoms: _259  and  _260
REMARK  108  A    between atoms: _259  and  _262
REMARK  109  A    between atoms: _262  and  _263
REMARK  110  A    between atoms: _269  and  _271
REMARK  111  A    between atoms: _271  and  _272
REMARK  112  A    between atoms: _271  and  _274
REMARK  113  A    between atoms: _274  and  _275
REMARK  114  A    between atoms: _278  and  _280
REMARK  115  A    between atoms: _280  and  _281
REMARK  116  A    between atoms: _280  and  _283
REMARK  117  A    between atoms: _283  and  _284
REMARK  118  A    between atoms: _286  and  _288
REMARK  119  A    between atoms: _288  and  _289
REMARK  120  A    between atoms: _288  and  _291
REMARK  121  A    between atoms: _291  and  _292
REMARK  122  A    between atoms: _302  and  _304
REMARK  123  A    between atoms: _304  and  _305
REMARK  124  A    between atoms: _307  and  _309
REMARK  125  A    between atoms: _309  and  _310
REMARK  126  A    between atoms: _309  and  _312
REMARK  127  A    between atoms: _312  and  _313
REMARK  128  A    between atoms: _316  and  _318
REMARK  129  A    between atoms: _318  and  _319
REMARK  130  A    between atoms: _318  and  _321
REMARK  131  A    between atoms: _321  and  _322
REMARK  132  A    between atoms: _325  and  _327
REMARK  133  A    between atoms: _327  and  _328
REMARK  134  A    between atoms: _330  and  _332
REMARK  135  A    between atoms: _332  and  _333
REMARK  136  A    between atoms: _332  and  _335
REMARK  137  A    between atoms: _335  and  _336
REMARK  138  A    between atoms: _339  and  _341
REMARK  139  A    between atoms: _341  and  _342
REMARK  140  A    between atoms: _345  and  _347
REMARK  141  A    between atoms: _347  and  _348
REMARK  142  A    between atoms: _347  and  _350
REMARK  143  A    between atoms: _350  and  _351
REMARK  144  A    between atoms: _356  and  _357
REMARK  145  A    between atoms: _359  and  _361
REMARK  146  A    between atoms: _361  and  _362
REMARK  147  A    between atoms: _361  and  _364
REMARK  148  A    between atoms: _364  and  _365
REMARK  149  A    between atoms: _368  and  _370
REMARK  150  A    between atoms: _370  and  _371
REMARK  151  A    between atoms: _374  and  _376
REMARK  152  A    between atoms: _376  and  _377
REMARK  153  A    between atoms: _376  and  _379
REMARK  154  A    between atoms: _379  and  _380
REMARK  155  A    between atoms: _380  and  _381
REMARK  156  A    between atoms: _381  and  _382
REMARK  157  A    between atoms: _391  and  _393
REMARK  158  A    between atoms: _393  and  _394
REMARK  159  A    between atoms: _393  and  _396
REMARK  160  A    between atoms: _396  and  _397
REMARK  161  A    between atoms: _407  and  _409
REMARK  162  A    between atoms: _409  and  _410
REMARK  163  A    between atoms: _409  and  _412
REMARK  164  A    between atoms: _412  and  _413
REMARK  165  A    between atoms: _418  and  _419
REMARK  166  A    between atoms: _421  and  _423
REMARK  167  A    between atoms: _423  and  _424
REMARK  168  A    between atoms: _423  and  _426
REMARK  169  A    between atoms: _426  and  _427
REMARK  170  A    between atoms: _430  and  _432
REMARK  171  A    between atoms: _432  and  _433
REMARK  172  A    between atoms: _432  and  _435
REMARK  173  A    between atoms: _435  and  _436
REMARK  174  A    between atoms: _436  and  _437
REMARK  175  A    between atoms: _437  and  _438
REMARK  176  A    between atoms: _438  and  _439
REMARK  177  A    between atoms: _443  and  _445
REMARK  178  A    between atoms: _445  and  _446
REMARK  179  A    between atoms: _445  and  _448
REMARK  180  A    between atoms: _448  and  _449
REMARK  181  A    between atoms: _452  and  _454
REMARK  182  A    between atoms: _454  and  _455
REMARK  183  A    between atoms: _454  and  _457
REMARK  184  A    between atoms: _460  and  _462
REMARK  185  A    between atoms: _462  and  _463
REMARK  186  A    between atoms: _462  and  _465
REMARK  187  A    between atoms: _465  and  _466
REMARK  188  A    between atoms: _469  and  _471
REMARK  189  A    between atoms: _471  and  _472
REMARK  190  A    between atoms: _471  and  _474
REMARK  191  A    between atoms: _474  and  _475
REMARK  192  A    between atoms: _477  and  _479
REMARK  193  A    between atoms: _479  and  _480
REMARK  194  A    between atoms: _482  and  _484
REMARK  195  A    between atoms: _484  and  _485
REMARK  196  A    between atoms: _484  and  _487
REMARK  197  A    between atoms: _487  and  _488
REMARK  198  A    between atoms: _491  and  _493
REMARK  199  A    between atoms: _493  and  _494
REMARK  200  A    between atoms: _493  and  _496
REMARK  201  A    between atoms: _496  and  _497
REMARK  202  A    between atoms: _500  and  _502
REMARK  203  A    between atoms: _502  and  _503
REMARK  204  A    between atoms: _502  and  _505
REMARK  205  A    between atoms: _505  and  _506
REMARK  206  A    between atoms: _511  and  _513
REMARK  207  A    between atoms: _513  and  _514
REMARK  208  A    between atoms: _513  and  _516
REMARK  209  A    between atoms: _516  and  _517
REMARK  210  A    between atoms: _520  and  _522
REMARK  211  A    between atoms: _522  and  _523
REMARK  212  A    between atoms: _522  and  _525
REMARK  213  A    between atoms: _525  and  _526
REMARK  214  A    between atoms: _526  and  _527
REMARK  215  A    between atoms: _527  and  _528
REMARK  216  A    between atoms: _537  and  _539
REMARK  217  A    between atoms: _539  and  _540
REMARK  218  A    between atoms: _539  and  _542
REMARK  219  A    between atoms: _542  and  _543
REMARK  220  A    between atoms: _546  and  _548
REMARK  221  A    between atoms: _548  and  _549
REMARK  222  A    between atoms: _551  and  _553
REMARK  223  A    between atoms: _553  and  _554
REMARK  224  A    between atoms: _553  and  _556
REMARK  225  A    between atoms: _556  and  _557
REMARK  226  A    between atoms: _557  and  _558
REMARK  227  A    between atoms: _561  and  _563
REMARK  228  A    between atoms: _563  and  _564
REMARK  229  A    between atoms: _563  and  _566
REMARK  230  A    between atoms: _566  and  _567
REMARK  231  A    between atoms: _567  and  _568
REMARK  232  A    between atoms: _568  and  _569
REMARK  233  A    between atoms: _578  and  _580
REMARK  234  A    between atoms: _580  and  _581
REMARK  235  A    between atoms: _580  and  _583
REMARK  236  A    between atoms: _583  and  _584
REMARK  237  A    between atoms: _584  and  _585
REMARK  238  A    between atoms: _585  and  _586
REMARK  239  A    between atoms: _586  and  _587
REMARK  240  A    between atoms: _591  and  _593
REMARK  241  A    between atoms: _593  and  _594
REMARK  242  A    between atoms: _593  and  _596
REMARK  243  A    between atoms: _596  and  _597
REMARK  244  A    between atoms: _603  and  _605
REMARK  245  A    between atoms: _605  and  _606
REMARK  246  A    between atoms: _609  and  _611
REMARK  247  A    between atoms: _611  and  _612
REMARK  248  A    between atoms: _611  and  _614
REMARK  249  A    between atoms: _614  and  _615
REMARK  250  A    between atoms: _618  and  _620
REMARK  251  A    between atoms: _620  and  _621
REMARK  252  A    between atoms: _620  and  _623
REMARK  253  A    between atoms: _623  and  _624
REMARK  254  A    between atoms: _626  and  _628
REMARK  255  A    between atoms: _628  and  _629
REMARK  256  A    between atoms: _628  and  _631
REMARK  257  A    between atoms: _631  and  _632
REMARK  258  A    between atoms: _632  and  _633
REMARK  259  A    between atoms: _638  and  _640
REMARK  260  A    between atoms: _640  and  _641
REMARK  261  A    between atoms: _640  and  _643
REMARK  262  A    between atoms: _643  and  _644
REMARK  263  A    between atoms: _646  and  _648
REMARK  264  A    between atoms: _648  and  _649
REMARK  265  A    between atoms: _648  and  _651
REMARK  266  A    between atoms: _651  and  _652
REMARK  267  A    between atoms: _654  and  _656
REMARK  268  A    between atoms: _656  and  _657
REMARK  269  A    between atoms: _656  and  _659
REMARK  270  A    between atoms: _659  and  _660
REMARK  271  A    between atoms: _663  and  _665
REMARK  272  A    between atoms: _665  and  _666
REMARK  273  A    between atoms: _668  and  _670
REMARK  274  A    between atoms: _670  and  _671
REMARK  275  A    between atoms: _670  and  _673
REMARK  276  A    between atoms: _673  and  _674
REMARK  277  A    between atoms: _677  and  _679
REMARK  278  A    between atoms: _679  and  _680
REMARK  279  A    between atoms: _679  and  _682
REMARK  280  A    between atoms: _685  and  _687
REMARK  281  A    between atoms: _687  and  _688
REMARK  282  A    between atoms: _690  and  _692
REMARK  283  A    between atoms: _692  and  _693
REMARK  284  A    between atoms: _696  and  _698
REMARK  285  A    between atoms: _698  and  _699
REMARK  286  A    between atoms: _698  and  _701
REMARK                            x       y       z     vdW  Elec       q    Type
REMARK                         _______ _______ _______ _____ _____    ______ ____
ROOT
ATOM      1  C   ALA A   2      18.447 -14.722   2.168  0.00  0.00    +0.241 C 
ATOM      2  O   ALA A   2      17.788 -15.707   2.432  0.00  0.00    -0.273 OA
ATOM      3  N   ARG A   3      18.777 -14.404   0.923  0.00  0.00    -0.298 N 
ATOM      4  H   ARG A   3      19.264 -13.501   0.751  0.00  0.00    +0.150 HD
ENDROOT
BRANCH   1   5
ATOM      5  CA  ALA A   2      18.885 -13.779   3.293  0.00  0.00    +0.149 C 
ATOM      6  CB  ALA A   2      20.252 -14.197   3.789  0.00  0.00    +0.031 C 
BRANCH   5   8
ATOM      7  C   ILE A   1      16.710 -13.344   4.270  0.00  0.00    +0.238 C 
ATOM      8  N   ALA A   2      17.923 -13.874   4.387  0.00  0.00    -0.297 N 
ATOM      9  H   ALA A   2      18.190 -14.361   5.266  0.00  0.00    +0.150 HD
ATOM     10  O   ILE A   1      16.351 -12.699   3.260  0.00  0.00    -0.274 OA
BRANCH   7  11
ATOM     11  CA  ILE A   1      15.766 -13.561   5.446  0.00  0.00    +0.145 C 
BRANCH  11  12
ATOM     12  N   ILE A   1      16.408 -14.079   6.664  0.00  0.00    -0.238 NA
ATOM     13  H   ILE A   1      17.033 -13.473   7.233  0.00  0.00    +0.142 HD
ENDBRANCH  11  12
BRANCH  11  14
ATOM     14  CB  ILE A   1      14.979 -12.244   5.721  0.00  0.00    +0.025 C 
ATOM     15  CG2 ILE A   1      13.848 -12.509   6.673  0.00  0.00    +0.002 C 
BRANCH  14  16
ATOM     16  CG1 ILE A   1      15.881 -11.171   6.314  0.00  0.00    +0.002 C 
ATOM     17  CD1 ILE A   1      15.132  -9.800   6.418  0.00  0.00    +0.000 C 
ENDBRANCH  14  16
ENDBRANCH  11  14
ENDBRANCH   7  11
ENDBRANCH   5   8
ENDBRANCH   1   5
BRANCH   3  18
ATOM     18  CA  ARG A   3      18.481 -15.279  -0.227  0.00  0.00    +0.137 C 
BRANCH  18  19
ATOM     19  C   ARG A   3      19.849 -15.745  -0.699  0.00  0.00    +0.227 C 
ATOM     20  O   ARG A   3      20.818 -14.984  -0.633  0.00  0.00    -0.286 OA
ENDBRANCH  18  19
BRANCH  18  21
ATOM     21  CB  ARG A   3      17.817 -14.525  -1.385  0.00  0.00    +0.031 C 
BRANCH  21  22
ATOM     22  CG  ARG A   3      16.426 -13.906  -1.075  0.00  0.00    +0.045 C 
BRANCH  22  23
ATOM     23  CD  ARG A   3      15.384 -14.993  -0.769  0.00  0.00    +0.174 C 
BRANCH  23  24
ATOM     24  NE  ARG A   3      14.032 -14.446  -0.623  0.00  0.00    -0.265 N 
ATOM     25  HE  ARG A   3      13.809 -13.959   0.269  0.00  0.00    +0.259 HD
ATOM     26  CZ  ARG A   3      13.057 -14.520  -1.542  0.00  0.00    +0.342 C 
ATOM     27  NH2 ARG A   3      11.875 -13.974  -1.299  0.00  0.00    -0.292 N 
ATOM     28 HH21 ARG A   3      11.703 -13.488  -0.396  0.00  0.00    +0.255 HD
ATOM     29 HH22 ARG A   3      11.119 -14.031  -2.011  0.00  0.00    +0.255 HD
ATOM     30  NH1 ARG A   3      13.256 -15.123  -2.704  0.00  0.00    -0.292 N 
ATOM     31 HH11 ARG A   3      14.180 -15.549  -2.917  0.00  0.00    +0.255 HD
ATOM     32 HH12 ARG A   3      12.488 -15.170  -3.404  0.00  0.00    +0.255 HD
ENDBRANCH  23  24
ENDBRANCH  22  23
ENDBRANCH  21  22
ENDBRANCH  18  21
ENDBRANCH   3  18
TORSDOF 12
REMARK  Name = ../refined-set-2016/1fkn/1fkn_pocket.pdb
REMARK  286 active torsions:
REMARK  status: ('A' for Active; 'I' for Inactive)
REMARK    1  A    between atoms: _1  and  _3
REMARK    2  A    between atoms: _3  and  _4
REMARK    3  A    between atoms: _3  and  _6
REMARK    4  A    between atoms: _6  and  _7
REMARK    5  A    between atoms: _7  and  _8
REMARK    6  A    between atoms: _8  and  _9
REMARK    7  A    between atoms: _9  and  _10
REMARK    8  A    between atoms: _14  and  _16
REMARK    9  A    between atoms: _16  and  _17
REMARK   10  A    between atoms: _16  and  _19
REMARK   11  A    between atoms: _19  and  _20
REMARK   12  A    between atoms: _22  and  _24
REMARK   13  A    between atoms: _24  and  _25
REMARK   14  A    between atoms: _27  and  _29
REMARK   15  A    between atoms: _29  and  _30
REMARK   16  A    between atoms: _29  and  _32
REMARK   17  A    between atoms: _32  and  _33
REMARK   18  A    between atoms: _33  and  _34
REMARK   19  A    between atoms: _39  and  _41
REMARK   20  A    between atoms: _41  and  _42
REMARK   21  A    between atoms: _44  and  _46
REMARK   22  A    between atoms: _46  and  _47
REMARK   23  A    between atoms: _46  and  _49
REMARK   24  A    between atoms: _49  and  _50
REMARK   25  A    between atoms: _55  and  _56
REMARK   26  A    between atoms: _58  and  _60
REMARK   27  A    between atoms: _60  and  _61
REMARK   28  A    between atoms: _60  and  _63
REMARK   29  A    between atoms: _63  and  _64
REMARK   30  A    between atoms: _67  and  _69
REMARK   31  A    between atoms: _69  and  _70
REMARK   32  A    between atoms: _69  and  _72
REMARK   33  A    between atoms: _75  and  _77
REMARK   34  A    between atoms: _77  and  _78
REMARK   35  A    between atoms: _77  and  _80
REMARK   36  A    between atoms: _80  and  _81
REMARK   37  A    between atoms: _84  and  _86
REMARK   38  A    between atoms: _86  and  _87
REMARK   39  A    between atoms: _86  and  _89
REMARK   40  A    between atoms: _89  and  _90
REMARK   41  A    between atoms: _93  and  _95
REMARK   42  A    between atoms: _95  and  _96
REMARK   43  A    between atoms: _98  and  _100
REMARK   44  A    between atoms: _100  and  _101
REMARK   45  A    between atoms: _100  and  _103
REMARK   46  A    between atoms: _103  and  _104
REMARK   47  A    between atoms: _106  and  _108
REMARK   48  A    between atoms: _108  and  _109
REMARK   49  A    between atoms: _108  and  _111
REMARK   50  A    between atoms: _111  and  _112
REMARK   51  A    between atoms: _114  and  _116
REMARK   52  A    between atoms: _116  and  _117
REMARK   53  A    between atoms: _116  and  _119
REMARK   54  A    between atoms: _119  and  _120
REMARK   55  A    between atoms: _125  and  _127
REMARK   56  A    between atoms: _127  and  _128
REMARK   57  A    between atoms: _127  and  _130
REMARK   58  A    between atoms: _130  and  _131
REMARK   59  A    between atoms: _136  and  _137
REMARK   60  A    between atoms: _139  and  _141
REMARK   61  A    between atoms: _141  and  _142
REMARK   62  A    between atoms: _141  and  _144
REMARK   63  A    between atoms: _148  and  _149
REMARK   64  A    between atoms: _154  and  _156
REMARK   65  A    between atoms: _156  and  _157
REMARK   66  A    between atoms: _156  and  _159
REMARK   67  A    between atoms: _159  and  _160
REMARK   68  A    between atoms: _165  and  _166
REMARK   69  A    between atoms: _168  and  _170
REMARK   70  A    between atoms: _170  and  _171
REMARK   71  A    between atoms: _170  and  _173
REMARK   72  A    between atoms: _173  and  _174
REMARK   73  A    between atoms: _177  and  _179
REMARK   74  A    between atoms: _179  and  _180
REMARK   75  A    between atoms: _179  and  _182
REMARK   76  A    between atoms: _182  and  _183
REMARK   77  A    between atoms: _183  and  _184
REMARK   78  A    between atoms: _189  and  _191
REMARK   79  A    between atoms: _191  and  _192
REMARK   80  A    between atoms: _194  and  _196
REMARK   81  A    between atoms: _196  and  _197
REMARK   82  A    between atoms: _196  and  _199
REMARK   83  A    between atoms: _199  and  _200
REMARK   84  A    between atoms: _200  and  _201
REMARK   85  A    between atoms: _201  and  _202
REMARK   86  A    between atoms: _202  and  _203
REMARK   87  A    between atoms: _207  and  _209
REMARK   88  A    between atoms: _209  and  _210
REMARK   89  A    between atoms: _209  and  _212
REMARK   90  A    between atoms: _212  and  _213
REMARK   91  A    between atoms: _223  and  _225
REMARK   92  A    between atoms: _225  and  _226
REMARK   93  A    between atoms: _225  and  _228
REMARK   94  A    between atoms: _228  and  _229
REMARK   95  A    between atoms: _232  and  _234
REMARK   96  A    between atoms: _234  and  _235
REMARK   97  A    between atoms: _234  and  _237
REMARK   98  A    between atoms: _237  and  _238
REMARK   99  A    between atoms: _238  and  _239
REMARK  100  A    between atoms: _239  and  _240
REMARK  101  A    between atoms: _240  and  _241
REMARK  102  A    between atoms: _245  and  _247
REMARK  103  A    between atoms: _247  and  _248
REMARK  104  A    between atoms: _247  and  _250
REMARK  105  A    between atoms: _250  and  _251
REMARK  106  A    between atoms: _257  and  _259
REMARK  107  A    between atoms: _259  and  _260
REMARK  108  A    between atoms: _259  and  _262
REMARK  109  A    between atoms: _262  and  _263
REMARK  110  A    between atoms: _269  and  _271
REMARK  111  A    between atoms: _271  and  _272
REMARK  112  A    between atoms: _271  and  _274
REMARK  113  A    between atoms: _274  and  _275
REMARK  114  A    between atoms: _278  and  _280
REMARK  115  A    between atoms: _280  and  _281
REMARK  116  A    between atoms: _280  and  _283
REMARK  117  A    between atoms: _283  and  _284
REMARK  118  A    between atoms: _286  and  _288
REMARK  119  A    between atoms: _288  and  _289
REMARK  120  A    between atoms: _288  and  _291
REMARK  121  A    between atoms: _291  and  _292
REMARK  122  A    between atoms: _302  and  _304
REMARK  123  A    between atoms: _304  and  _305
REMARK  124  A    between atoms: _307  and  _309
REMARK  125  A    between atoms: _309  and  _310
REMARK  126  A    between atoms: _309  and  _312
REMARK  127  A    between atoms: _312  and  _313
REMARK  128  A    between atoms: _316  and  _318
REMARK  129  A    between atoms: _318  and  _319
REMARK  130  A    between atoms: _318  and  _321
REMARK  131  A    between atoms: _321  and  _322
REMARK  132  A    between atoms: _325  and  _327
REMARK  133  A    between atoms: _327  and  _328
REMARK  134  A    between atoms: _330  and  _332
REMARK  135  A    between atoms: _332  and  _333
REMARK  136  A    between atoms: _332  and  _335
REMARK  137  A    between atoms: _335  and  _336
REMARK  138  A    between atoms: _339  and  _341
REMARK  139  A    between atoms: _341  and  _342
REMARK  140  A    between atoms: _345  and  _347
REMARK  141  A    between atoms: _347  and  _348
REMARK  142  A    between atoms: _347  and  _350
REMARK  143  A    between atoms: _350  and  _351
REMARK  144  A    between atoms: _356  and  _357
REMARK  145  A    between atoms: _359  and  _361
REMARK  146  A    between atoms: _361  and  _362
REMARK  147  A    between atoms: _361  and  _364
REMARK  148  A    between atoms: _364  and  _365
REMARK  149  A    between atoms: _368  and  _370
REMARK  150  A    between atoms: _370  and  _371
REMARK  151  A    between atoms: _374  and  _376
REMARK  152  A    between atoms: _376  and  _377
REMARK  153  A    between atoms: _376  and  _379
REMARK  154  A    between atoms: _379  and  _380
REMARK  155  A    between atoms: _380  and  _381
REMARK  156  A    between atoms: _381  and  _382
REMARK  157  A    between atoms: _391  and  _393
REMARK  158  A    between atoms: _393  and  _394
REMARK  159  A    between atoms: _393  and  _396
REMARK  160  A    between atoms: _396  and  _397
REMARK  161  A    between atoms: _407  and  _409
REMARK  162  A    between atoms: _409  and  _410
REMARK  163  A    between atoms: _409  and  _412
REMARK  164  A    between atoms: _412  and  _413
REMARK  165  A    between atoms: _418  and  _419
REMARK  166  A    between atoms: _421  and  _423
REMARK  167  A    between atoms: _423  and  _424
REMARK  168  A    between atoms: _423  and  _426
REMARK  169  A    between atoms: _426  and  _427
REMARK  170  A    between atoms: _430  and  _432
REMARK  171  A    between atoms: _432  and  _433
REMARK  172  A    between atoms: _432  and  _435
REMARK  173  A    between atoms: _435  and  _436
REMARK  174  A    between atoms: _436  and  _437
REMARK  175  A    between atoms: _437  and  _438
REMARK  176  A    between atoms: _438  and  _439
REMARK  177  A    between atoms: _443  and  _445
REMARK  178  A    between atoms: _445  and  _446
REMARK  179  A    between atoms: _445  and  _448
REMARK  180  A    between atoms: _448  and  _449
REMARK  181  A    between atoms: _452  and  _454
REMARK  182  A    between atoms: _454  and  _455
REMARK  183  A    between atoms: _454  and  _457
REMARK  184  A    between atoms: _460  and  _462
REMARK  185  A    between atoms: _462  and  _463
REMARK  186  A    between atoms: _462  and  _465
REMARK  187  A    between atoms: _465  and  _466
REMARK  188  A    between atoms: _469  and  _471
REMARK  189  A    between atoms: _471  and  _472
REMARK  190  A    between atoms: _471  and  _474
REMARK  191  A    between atoms: _474  and  _475
REMARK  192  A    between atoms: _477  and  _479
REMARK  193  A    between atoms: _479  and  _480
REMARK  194  A    between atoms: _482  and  _484
REMARK  195  A    between atoms: _484  and  _485
REMARK  196  A    between atoms: _484  and  _487
REMARK  197  A    between atoms: _487  and  _488
REMARK  198  A    between atoms: _491  and  _493
REMARK  199  A    between atoms: _493  and  _494
REMARK  200  A    between atoms: _493  and  _496
REMARK  201  A    between atoms: _496  and  _497
REMARK  202  A    between atoms: _500  and  _502
REMARK  203  A    between atoms: _502  and  _503
REMARK  204  A    between atoms: _502  and  _505
REMARK  205  A    between atoms: _505  and  _506
REMARK  206  A    between atoms: _511  and  _513
REMARK  207  A    between atoms: _513  and  _514
REMARK  208  A    between atoms: _513  and  _516
REMARK  209  A    between atoms: _516  and  _517
REMARK  210  A    between atoms: _520  and  _522
REMARK  211  A    between atoms: _522  and  _523
REMARK  212  A    between atoms: _522  and  _525
REMARK  213  A    between atoms: _525  and  _526
REMARK  214  A    between atoms: _526  and  _527
REMARK  215  A    between atoms: _527  and  _528
REMARK  216  A    between atoms: _537  and  _539
REMARK  217  A    between atoms: _539  and  _540
REMARK  218  A    between atoms: _539  and  _542
REMARK  219  A    between atoms: _542  and  _543
REMARK  220  A    between atoms: _546  and  _548
REMARK  221  A    between atoms: _548  and  _549
REMARK  222  A    between atoms: _551  and  _553
REMARK  223  A    between atoms: _553  and  _554
REMARK  224  A    between atoms: _553  and  _556
REMARK  225  A    between atoms: _556  and  _557
REMARK  226  A    between atoms: _557  and  _558
REMARK  227  A    between atoms: _561  and  _563
REMARK  228  A    between atoms: _563  and  _564
REMARK  229  A    between atoms: _563  and  _566
REMARK  230  A    between atoms: _566  and  _567
REMARK  231  A    between atoms: _567  and  _568
REMARK  232  A    between atoms: _568  and  _569
REMARK  233  A    between atoms: _578  and  _580
REMARK  234  A    between atoms: _580  and  _581
REMARK  235  A    between atoms: _580  and  _583
REMARK  236  A    between atoms: _583  and  _584
REMARK  237  A    between atoms: _584  and  _585
REMARK  238  A    between atoms: _585  and  _586
REMARK  239  A    between atoms: _586  and  _587
REMARK  240  A    between atoms: _591  and  _593
REMARK  241  A    between atoms: _593  and  _594
REMARK  242  A    between atoms: _593  and  _596
REMARK  243  A    between atoms: _596  and  _597
REMARK  244  A    between atoms: _603  and  _605
REMARK  245  A    between atoms: _605  and  _606
REMARK  246  A    between atoms: _609  and  _611
REMARK  247  A    between atoms: _611  and  _612
REMARK  248  A    between atoms: _611  and  _614
REMARK  249  A    between atoms: _614  and  _615
REMARK  250  A    between atoms: _618  and  _620
REMARK  251  A    between atoms: _620  and  _621
REMARK  252  A    between atoms: _620  and  _623
REMARK  253  A    between atoms: _623  and  _624
REMARK  254  A    between atoms: _626  and  _628
REMARK  255  A    between atoms: _628  and  _629
REMARK  256  A    between atoms: _628  and  _631
REMARK  257  A    between atoms: _631  and  _632
REMARK  258  A    between atoms: _632  and  _633
REMARK  259  A    between atoms: _638  and  _640
REMARK  260  A    between atoms: _640  and  _641
REMARK  261  A    between atoms: _640  and  _643
REMARK  262  A    between atoms: _643  and  _644
REMARK  263  A    between atoms: _646  and  _648
REMARK  264  A    between atoms: _648  and  _649
REMARK  265  A    between atoms: _648  and  _651
REMARK  266  A    between atoms: _651  and  _652
REMARK  267  A    between atoms: _654  and  _656
REMARK  268  A    between atoms: _656  and  _657
REMARK  269  A    between atoms: _656  and  _659
REMARK  270  A    between atoms: _659  and  _660
REMARK  271  A    between atoms: _663  and  _665
REMARK  272  A    between atoms: _665  and  _666
REMARK  273  A    between atoms: _668  and  _670
REMARK  274  A    between atoms: _670  and  _671
REMARK  275  A    between atoms: _670  and  _673
REMARK  276  A    between atoms: _673  and  _674
REMARK  277  A    between atoms: _677  and  _679
REMARK  278  A    between atoms: _679  and  _680
REMARK  279  A    between atoms: _679  and  _682
REMARK  280  A    between atoms: _685  and  _687
REMARK  281  A    between atoms: _687  and  _688
REMARK  282  A    between atoms: _690  and  _692
REMARK  283  A    between atoms: _692  and  _693
REMARK  284  A    between atoms: _696  and  _698
REMARK  285  A    between atoms: _698  and  _699
REMARK  286  A    between atoms: _698  and  _701
REMARK                            x       y       z     vdW  Elec       q    Type
REMARK                         _______ _______ _______ _____ _____    ______ ____
ROOT
ATOM      1  C   TRP A   1      15.041 -10.551  10.390  0.00  0.00    +0.239 C 
ATOM      2  N   TYR A   2      13.905  -9.869  10.320  0.00  0.00    -0.298 N 
ATOM      3  H   TYR A   2      12.993 -10.347  10.463  0.00  0.00    +0.150 HD
ATOM      4  O   TRP A   1      16.112 -10.059  10.062  0.00  0.00    -0.274 OA
ENDROOT
BRANCH   1   5
ATOM      5  CA  TRP A   1      15.016 -11.980  10.913  0.00  0.00    +0.149 C 
BRANCH   5   6
ATOM      6  N   TRP A   1      15.163 -11.650  12.324  0.00  0.00    -0.238 NA
ATOM      7  H   TRP A   1      14.676 -10.815  12.709  0.00  0.00    +0.142 HD
ENDBRANCH   5   6
BRANCH   5   8
ATOM      8  CB  TRP A   1      13.728 -12.792  10.639  0.00  0.00    +0.054 C 
BRANCH   8   9
ATOM      9  CG  TRP A   1      12.380 -12.255  11.097  0.00  0.00    -0.002 A 
ATOM     10  CD1 TRP A   1      12.102 -11.514  12.213  0.00  0.00    +0.068 A 
ATOM     11  NE1 TRP A   1      10.751 -11.239  12.277  0.00  0.00    -0.352 N 
ATOM     12  HE1 TRP A   1      10.279 -10.689  13.023  0.00  0.00    +0.166 HD
ATOM     13  CE2 TRP A   1      10.132 -11.812  11.193  0.00  0.00    +0.056 A 
ATOM     14  CZ2 TRP A   1       8.776 -11.811  10.818  0.00  0.00    +0.017 A 
ATOM     15  CH2 TRP A   1       8.436 -12.470   9.665  0.00  0.00    +0.001 A 
ATOM     16  CZ3 TRP A   1       9.408 -13.134   8.881  0.00  0.00    +0.000 A 
ATOM     17  CE3 TRP A   1      10.756 -13.139   9.257  0.00  0.00    +0.001 A 
ATOM     18  CD2 TRP A   1      11.129 -12.463  10.431  0.00  0.00    +0.013 A 
ENDBRANCH   8   9
ENDBRANCH   5   8
ENDBRANCH   1   5
BRANCH   2  19
ATOM     19  CA  TYR A   2      13.956  -8.417  10.035  0.00  0.00    +0.141 C 
BRANCH  19  20
ATOM     20  C   TYR A   2      14.263  -7.851  11.445  0.00  0.00    +0.227 C 
ATOM     21  O   TYR A   2      14.377  -8.622  12.395  0.00  0.00    -0.286 OA
ENDBRANCH  19  20
BRANCH  19  22
ATOM     22  CB  TYR A   2      12.571  -7.870   9.674  0.00  0.00    +0.054 C 
BRANCH  22  23
ATOM     23  CG  TYR A   2      12.010  -8.413   8.390  0.00  0.00    -0.020 A 
ATOM     24  CD2 TYR A   2      11.193  -9.536   8.375  0.00  0.00    -0.001 A 
ATOM     25  CE2 TYR A   2      10.674 -10.018   7.167  0.00  0.00    +0.036 A 
ATOM     26  CZ  TYR A   2      10.991  -9.363   5.989  0.00  0.00    +0.134 A 
ATOM     27  CE1 TYR A   2      11.789  -8.249   5.998  0.00  0.00    +0.036 A 
ATOM     28  CD1 TYR A   2      12.295  -7.784   7.181  0.00  0.00    -0.001 A 
BRANCH  26  29
ATOM     29  OH  TYR A   2      10.612  -9.801   4.738  0.00  0.00    -0.506 OA
ATOM     30  HH  TYR A   2      10.952  -9.173   4.053  0.00  0.00    +0.292 HD
ENDBRANCH  26  29
ENDBRANCH  22  23
ENDBRANCH  19  22
ENDBRANCH   2  19
TORSDOF 9
REMARK  Name = ../refined-set-2016/1fkn/1fkn_pocket.pdb
REMARK  286 active torsions:
REMARK  status: ('A' for Active; 'I' for Inactive)
REMARK    1  A    between atoms: _1  and  _3
REMARK    2  A    between atoms: _3  and  _4
REMARK    3  A    between atoms: _3  and  _6
REMARK    4  A    between atoms: _6  and  _7
REMARK    5  A    between atoms: _7  and  _8
REMARK    6  A    between atoms: _8  and  _9
REMARK    7  A    between atoms: _9  and  _10
REMARK    8  A    between atoms: _14  and  _16
REMARK    9  A    between atoms: _16  and  _17
REMARK   10  A    between atoms: _16  and  _19
REMARK   11  A    between atoms: _19  and  _20
REMARK   12  A    between atoms: _22  and  _24
REMARK   13  A    between atoms: _24  and  _25
REMARK   14  A    between atoms: _27  and  _29
REMARK   15  A    between atoms: _29  and  _30
REMARK   16  A    between atoms: _29  and  _32
REMARK   17  A    between atoms: _32  and  _33
REMARK   18  A    between atoms: _33  and  _34
REMARK   19  A    between atoms: _39  and  _41
REMARK   20  A    between atoms: _41  and  _42
REMARK   21  A    between atoms: _44  and  _46
REMARK   22  A    between atoms: _46  and  _47
REMARK   23  A    between atoms: _46  and  _49
REMARK   24  A    between atoms: _49  and  _50
REMARK   25  A    between atoms: _55  and  _56
REMARK   26  A    between atoms: _58  and  _60
REMARK   27  A    between atoms: _60  and  _61
REMARK   28  A    between atoms: _60  and  _63
REMARK   29  A    between atoms: _63  and  _64
REMARK   30  A    between atoms: _67  and  _69
REMARK   31  A    between atoms: _69  and  _70
REMARK   32  A    between atoms: _69  and  _72
REMARK   33  A    between atoms: _75  and  _77
REMARK   34  A    between atoms: _77  and  _78
REMARK   35  A    between atoms: _77  and  _80
REMARK   36  A    between atoms: _80  and  _81
REMARK   37  A    between atoms: _84  and  _86
REMARK   38  A    between atoms: _86  and  _87
REMARK   39  A    between atoms: _86  and  _89
REMARK   40  A    between atoms: _89  and  _90
REMARK   41  A    between atoms: _93  and  _95
REMARK   42  A    between atoms: _95  and  _96
REMARK   43  A    between atoms: _98  and  _100
REMARK   44  A    between atoms: _100  and  _101
REMARK   45  A    between atoms: _100  and  _103
REMARK   46  A    between atoms: _103  and  _104
REMARK   47  A    between atoms: _106  and  _108
REMARK   48  A    between atoms: _108  and  _109
REMARK   49  A    between atoms: _108  and  _111
REMARK   50  A    between atoms: _111  and  _112
REMARK   51  A    between atoms: _114  and  _116
REMARK   52  A    between atoms: _116  and  _117
REMARK   53  A    between atoms: _116  and  _119
REMARK   54  A    between atoms: _119  and  _120
REMARK   55  A    between atoms: _125  and  _127
REMARK   56  A    between atoms: _127  and  _128
REMARK   57  A    between atoms: _127  and  _130
REMARK   58  A    between atoms: _130  and  _131
REMARK   59  A    between atoms: _136  and  _137
REMARK   60  A    between atoms: _139  and  _141
REMARK   61  A    between atoms: _141  and  _142
REMARK   62  A    between atoms: _141  and  _144
REMARK   63  A    between atoms: _148  and  _149
REMARK   64  A    between atoms: _154  and  _156
REMARK   65  A    between atoms: _156  and  _157
REMARK   66  A    between atoms: _156  and  _159
REMARK   67  A    between atoms: _159  and  _160
REMARK   68  A    between atoms: _165  and  _166
REMARK   69  A    between atoms: _168  and  _170
REMARK   70  A    between atoms: _170  and  _171
REMARK   71  A    between atoms: _170  and  _173
REMARK   72  A    between atoms: _173  and  _174
REMARK   73  A    between atoms: _177  and  _179
REMARK   74  A    between atoms: _179  and  _180
REMARK   75  A    between atoms: _179  and  _182
REMARK   76  A    between atoms: _182  and  _183
REMARK   77  A    between atoms: _183  and  _184
REMARK   78  A    between atoms: _189  and  _191
REMARK   79  A    between atoms: _191  and  _192
REMARK   80  A    between atoms: _194  and  _196
REMARK   81  A    between atoms: _196  and  _197
REMARK   82  A    between atoms: _196  and  _199
REMARK   83  A    between atoms: _199  and  _200
REMARK   84  A    between atoms: _200  and  _201
REMARK   85  A    between atoms: _201  and  _202
REMARK   86  A    between atoms: _202  and  _203
REMARK   87  A    between atoms: _207  and  _209
REMARK   88  A    between atoms: _209  and  _210
REMARK   89  A    between atoms: _209  and  _212
REMARK   90  A    between atoms: _212  and  _213
REMARK   91  A    between atoms: _223  and  _225
REMARK   92  A    between atoms: _225  and  _226
REMARK   93  A    between atoms: _225  and  _228
REMARK   94  A    between atoms: _228  and  _229
REMARK   95  A    between atoms: _232  and  _234
REMARK   96  A    between atoms: _234  and  _235
REMARK   97  A    between atoms: _234  and  _237
REMARK   98  A    between atoms: _237  and  _238
REMARK   99  A    between atoms: _238  and  _239
REMARK  100  A    between atoms: _239  and  _240
REMARK  101  A    between atoms: _240  and  _241
REMARK  102  A    between atoms: _245  and  _247
REMARK  103  A    between atoms: _247  and  _248
REMARK  104  A    between atoms: _247  and  _250
REMARK  105  A    between atoms: _250  and  _251
REMARK  106  A    between atoms: _257  and  _259
REMARK  107  A    between atoms: _259  and  _260
REMARK  108  A    between atoms: _259  and  _262
REMARK  109  A    between atoms: _262  and  _263
REMARK  110  A    between atoms: _269  and  _271
REMARK  111  A    between atoms: _271  and  _272
REMARK  112  A    between atoms: _271  and  _274
REMARK  113  A    between atoms: _274  and  _275
REMARK  114  A    between atoms: _278  and  _280
REMARK  115  A    between atoms: _280  and  _281
REMARK  116  A    between atoms: _280  and  _283
REMARK  117  A    between atoms: _283  and  _284
REMARK  118  A    between atoms: _286  and  _288
REMARK  119  A    between atoms: _288  and  _289
REMARK  120  A    between atoms: _288  and  _291
REMARK  121  A    between atoms: _291  and  _292
REMARK  122  A    between atoms: _302  and  _304
REMARK  123  A    between atoms: _304  and  _305
REMARK  124  A    between atoms: _307  and  _309
REMARK  125  A    between atoms: _309  and  _310
REMARK  126  A    between atoms: _309  and  _312
REMARK  127  A    between atoms: _312  and  _313
REMARK  128  A    between atoms: _316  and  _318
REMARK  129  A    between atoms: _318  and  _319
REMARK  130  A    between atoms: _318  and  _321
REMARK  131  A    between atoms: _321  and  _322
REMARK  132  A    between atoms: _325  and  _327
REMARK  133  A    between atoms: _327  and  _328
REMARK  134  A    between atoms: _330  and  _332
REMARK  135  A    between atoms: _332  and  _333
REMARK  136  A    between atoms: _332  and  _335
REMARK  137  A    between atoms: _335  and  _336
REMARK  138  A    between atoms: _339  and  _341
REMARK  139  A    between atoms: _341  and  _342
REMARK  140  A    between atoms: _345  and  _347
REMARK  141  A    between atoms: _347  and  _348
REMARK  142  A    between atoms: _347  and  _350
REMARK  143  A    between atoms: _350  and  _351
REMARK  144  A    between atoms: _356  and  _357
REMARK  145  A    between atoms: _359  and  _361
REMARK  146  A    between atoms: _361  and  _362
REMARK  147  A    between atoms: _361  and  _364
REMARK  148  A    between atoms: _364  and  _365
REMARK  149  A    between atoms: _368  and  _370
REMARK  150  A    between atoms: _370  and  _371
REMARK  151  A    between atoms: _374  and  _376
REMARK  152  A    between atoms: _376  and  _377
REMARK  153  A    between atoms: _376  and  _379
REMARK  154  A    between atoms: _379  and  _380
REMARK  155  A    between atoms: _380  and  _381
REMARK  156  A    between atoms: _381  and  _382
REMARK  157  A    between atoms: _391  and  _393
REMARK  158  A    between atoms: _393  and  _394
REMARK  159  A    between atoms: _393  and  _396
REMARK  160  A    between atoms: _396  and  _397
REMARK  161  A    between atoms: _407  and  _409
REMARK  162  A    between atoms: _409  and  _410
REMARK  163  A    between atoms: _409  and  _412
REMARK  164  A    between atoms: _412  and  _413
REMARK  165  A    between atoms: _418  and  _419
REMARK  166  A    between atoms: _421  and  _423
REMARK  167  A    between atoms: _423  and  _424
REMARK  168  A    between atoms: _423  and  _426
REMARK  169  A    between atoms: _426  and  _427
REMARK  170  A    between atoms: _430  and  _432
REMARK  171  A    between atoms: _432  and  _433
REMARK  172  A    between atoms: _432  and  _435
REMARK  173  A    between atoms: _435  and  _436
REMARK  174  A    between atoms: _436  and  _437
REMARK  175  A    between atoms: _437  and  _438
REMARK  176  A    between atoms: _438  and  _439
REMARK  177  A    between atoms: _443  and  _445
REMARK  178  A    between atoms: _445  and  _446
REMARK  179  A    between atoms: _445  and  _448
REMARK  180  A    between atoms: _448  and  _449
REMARK  181  A    between atoms: _452  and  _454
REMARK  182  A    between atoms: _454  and  _455
REMARK  183  A    between atoms: _454  and  _457
REMARK  184  A    between atoms: _460  and  _462
REMARK  185  A    between atoms: _462  and  _463
REMARK  186  A    between atoms: _462  and  _465
REMARK  187  A    between atoms: _465  and  _466
REMARK  188  A    between atoms: _469  and  _471
REMARK  189  A    between atoms: _471  and  _472
REMARK  190  A    between atoms: _471  and  _474
REMARK  191  A    between atoms: _474  and  _475
REMARK  192  A    between atoms: _477  and  _479
REMARK  193  A    between atoms: _479  and  _480
REMARK  194  A    between atoms: _482  and  _484
REMARK  195  A    between atoms: _484  and  _485
REMARK  196  A    between atoms: _484  and  _487
REMARK  197  A    between atoms: _487  and  _488
REMARK  198  A    between atoms: _491  and  _493
REMARK  199  A    between atoms: _493  and  _494
REMARK  200  A    between atoms: _493  and  _496
REMARK  201  A    between atoms: _496  and  _497
REMARK  202  A    between atoms: _500  and  _502
REMARK  203  A    between atoms: _502  and  _503
REMARK  204  A    between atoms: _502  and  _505
REMARK  205  A    between atoms: _505  and  _506
REMARK  206  A    between atoms: _511  and  _513
REMARK  207  A    between atoms: _513  and  _514
REMARK  208  A    between atoms: _513  and  _516
REMARK  209  A    between atoms: _516  and  _517
REMARK  210  A    between atoms: _520  and  _522
REMARK  211  A    between atoms: _522  and  _523
REMARK  212  A    between atoms: _522  and  _525
REMARK  213  A    between atoms: _525  and  _526
REMARK  214  A    between atoms: _526  and  _527
REMARK  215  A    between atoms: _527  and  _528
REMARK  216  A    between atoms: _537  and  _539
REMARK  217  A    between atoms: _539  and  _540
REMARK  218  A    between atoms: _539  and  _542
REMARK  219  A    between atoms: _542  and  _543
REMARK  220  A    between atoms: _546  and  _548
REMARK  221  A    between atoms: _548  and  _549
REMARK  222  A    between atoms: _551  and  _553
REMARK  223  A    between atoms: _553  and  _554
REMARK  224  A    between atoms: _553  and  _556
REMARK  225  A    between atoms: _556  and  _557
REMARK  226  A    between atoms: _557  and  _558
REMARK  227  A    between atoms: _561  and  _563
REMARK  228  A    between atoms: _563  and  _564
REMARK  229  A    between atoms: _563  and  _566
REMARK  230  A    between atoms: _566  and  _567
REMARK  231  A    between atoms: _567  and  _568
REMARK  232  A    between atoms: _568  and  _569
REMARK  233  A    between atoms: _578  and  _580
REMARK  234  A    between atoms: _580  and  _581
REMARK  235  A    between atoms: _580  and  _583
REMARK  236  A    between atoms: _583  and  _584
REMARK  237  A    between atoms: _584  and  _585
REMARK  238  A    between atoms: _585  and  _586
REMARK  239  A    between atoms: _586  and  _587
REMARK  240  A    between atoms: _591  and  _593
REMARK  241  A    between atoms: _593  and  _594
REMARK  242  A    between atoms: _593  and  _596
REMARK  243  A    between atoms: _596  and  _597
REMARK  244  A    between atoms: _603  and  _605
REMARK  245  A    between atoms: _605  and  _606
REMARK  246  A    between atoms: _609  and  _611
REMARK  247  A    between atoms: _611  and  _612
REMARK  248  A    between atoms: _611  and  _614
REMARK  249  A    between atoms: _614  and  _615
REMARK  250  A    between atoms: _618  and  _620
REMARK  251  A    between atoms: _620  and  _621
REMARK  252  A    between atoms: _620  and  _623
REMARK  253  A    between atoms: _623  and  _624
REMARK  254  A    between atoms: _626  and  _628
REMARK  255  A    between atoms: _628  and  _629
REMARK  256  A    between atoms: _628  and  _631
REMARK  257  A    between atoms: _631  and  _632
REMARK  258  A    between atoms: _632  and  _633
REMARK  259  A    between atoms: _638  and  _640
REMARK  260  A    between atoms: _640  and  _641
REMARK  261  A    between atoms: _640  and  _643
REMARK  262  A    between atoms: _643  and  _644
REMARK  263  A    between atoms: _646  and  _648
REMARK  264  A    between atoms: _648  and  _649
REMARK  265  A    between atoms: _648  and  _651
REMARK  266  A    between atoms: _651  and  _652
REMARK  267  A    between atoms: _654  and  _656
REMARK  268  A    between atoms: _656  and  _657
REMARK  269  A    between atoms: _656  and  _659
REMARK  270  A    between atoms: _659  and  _660
REMARK  271  A    between atoms: _663  and  _665
REMARK  272  A    between atoms: _665  and  _666
REMARK  273  A    between atoms: _668  and  _670
REMARK  274  A    between atoms: _670  and  _671
REMARK  275  A    between atoms: _670  and  _673
REMARK  276  A    between atoms: _673  and  _674
REMARK  277  A    between atoms: _677  and  _679
REMARK  278  A    between atoms: _679  and  _680
REMARK  279  A    between atoms: _679  and  _682
REMARK  280  A    between atoms: _685  and  _687
REMARK  281  A    between atoms: _687  and  _688
REMARK  282  A    between atoms: _690  and  _692
REMARK  283  A    between atoms: _692  and  _693
REMARK  284  A    between atoms: _696  and  _698
REMARK  285  A    between atoms: _698  and  _699
REMARK  286  A    between atoms: _698  and  _701
REMARK                            x       y       z     vdW  Elec       q    Type
REMARK                         _______ _______ _______ _____ _____    ______ ____
ROOT
ATOM      1  C   ASP A   1       3.320  -9.276  10.909  0.00  0.00    +0.239 C 
ATOM      2  N   LYS A   2       3.597  -8.043  11.356  0.00  0.00    -0.298 N 
ATOM      3  H   LYS A   2       2.813  -7.362  11.411  0.00  0.00    +0.150 HD
ATOM      4  O   ASP A   1       4.170 -10.147  10.733  0.00  0.00    -0.274 OA
ENDROOT
BRANCH   1   5
ATOM      5  CA  ASP A   1       1.807  -9.548  10.633  0.00  0.00    +0.156 C 
BRANCH   5   6
ATOM      6  N   ASP A   1       0.926  -8.573  11.329  0.00  0.00    -0.238 NA
ATOM      7  H   ASP A   1       0.744  -8.803  12.327  0.00  0.00    +0.142 HD
ENDBRANCH   5   6
BRANCH   5   8
ATOM      8  CB  ASP A   1       1.349  -9.651   9.179  0.00  0.00    +0.140 C 
BRANCH   8   9
ATOM      9  CG  ASP A   1       2.416  -9.603   8.132  0.00  0.00    +0.367 C 
ATOM     10  OD2 ASP A   1       3.010  -8.527   7.940  0.00  0.00    -0.246 OA
ATOM     11  OD1 ASP A   1       2.679 -10.635   7.500  0.00  0.00    -0.246 OA
ENDBRANCH   8   9
ENDBRANCH   5   8
ENDBRANCH   1   5
BRANCH   2  12
ATOM     12  CA  LYS A   2       4.939  -7.580  11.777  0.00  0.00    +0.137 C 
BRANCH  12  13
ATOM     13  C   LYS A   2       5.157  -6.060  11.725  0.00  0.00    +0.227 C 
ATOM     14  O   LYS A   2       4.447  -5.345  11.015  0.00  0.00    -0.286 OA
ENDBRANCH  12  13
BRANCH  12  15
ATOM     15  CB  LYS A   2       6.064  -8.259  10.971  0.00  0.00    +0.028 C 
BRANCH  15  16
ATOM     16  CG  LYS A   2       6.200  -7.826   9.491  0.00  0.00    -0.000 C 
BRANCH  16  17
ATOM     17  CD  LYS A   2       7.338  -8.616   8.825  0.00  0.00    -0.024 C 
BRANCH  17  18
ATOM     18  CE  LYS A   2       7.260  -8.443   7.315  0.00  0.00    -0.086 C 
BRANCH  18  19
ATOM     19  NZ  LYS A   2       5.959  -9.008   6.851  0.00  0.00    +0.380 N 
ATOM     20  HZ1 LYS A   2       5.178  -8.499   7.312  0.00  0.00    -0.089 HD
ATOM     21  HZ2 LYS A   2       5.912 -10.017   7.100  0.00  0.00    -0.089 HD
ATOM     22  HZ3 LYS A   2       5.884  -8.900   5.819  0.00  0.00    -0.089 HD
ENDBRANCH  18  19
ENDBRANCH  17  18
ENDBRANCH  16  17
ENDBRANCH  15  16
ENDBRANCH  12  15
ENDBRANCH   2  12
TORSDOF 11
REMARK  Name = ../refined-set-2016/1fkn/1fkn_pocket.pdb
REMARK  286 active torsions:
REMARK  status: ('A' for Active; 'I' for Inactive)
REMARK    1  A    between atoms: _1  and  _3
REMARK    2  A    between atoms: _3  and  _4
REMARK    3  A    between atoms: _3  and  _6
REMARK    4  A    between atoms: _6  and  _7
REMARK    5  A    between atoms: _7  and  _8
REMARK    6  A    between atoms: _8  and  _9
REMARK    7  A    between atoms: _9  and  _10
REMARK    8  A    between atoms: _14  and  _16
REMARK    9  A    between atoms: _16  and  _17
REMARK   10  A    between atoms: _16  and  _19
REMARK   11  A    between atoms: _19  and  _20
REMARK   12  A    between atoms: _22  and  _24
REMARK   13  A    between atoms: _24  and  _25
REMARK   14  A    between atoms: _27  and  _29
REMARK   15  A    between atoms: _29  and  _30
REMARK   16  A    between atoms: _29  and  _32
REMARK   17  A    between atoms: _32  and  _33
REMARK   18  A    between atoms: _33  and  _34
REMARK   19  A    between atoms: _39  and  _41
REMARK   20  A    between atoms: _41  and  _42
REMARK   21  A    between atoms: _44  and  _46
REMARK   22  A    between atoms: _46  and  _47
REMARK   23  A    between atoms: _46  and  _49
REMARK   24  A    between atoms: _49  and  _50
REMARK   25  A    between atoms: _55  and  _56
REMARK   26  A    between atoms: _58  and  _60
REMARK   27  A    between atoms: _60  and  _61
REMARK   28  A    between atoms: _60  and  _63
REMARK   29  A    between atoms: _63  and  _64
REMARK   30  A    between atoms: _67  and  _69
REMARK   31  A    between atoms: _69  and  _70
REMARK   32  A    between atoms: _69  and  _72
REMARK   33  A    between atoms: _75  and  _77
REMARK   34  A    between atoms: _77  and  _78
REMARK   35  A    between atoms: _77  and  _80
REMARK   36  A    between atoms: _80  and  _81
REMARK   37  A    between atoms: _84  and  _86
REMARK   38  A    between atoms: _86  and  _87
REMARK   39  A    between atoms: _86  and  _89
REMARK   40  A    between atoms: _89  and  _90
REMARK   41  A    between atoms: _93  and  _95
REMARK   42  A    between atoms: _95  and  _96
REMARK   43  A    between atoms: _98  and  _100
REMARK   44  A    between atoms: _100  and  _101
REMARK   45  A    between atoms: _100  and  _103
REMARK   46  A    between atoms: _103  and  _104
REMARK   47  A    between atoms: _106  and  _108
REMARK   48  A    between atoms: _108  and  _109
REMARK   49  A    between atoms: _108  and  _111
REMARK   50  A    between atoms: _111  and  _112
REMARK   51  A    between atoms: _114  and  _116
REMARK   52  A    between atoms: _116  and  _117
REMARK   53  A    between atoms: _116  and  _119
REMARK   54  A    between atoms: _119  and  _120
REMARK   55  A    between atoms: _125  and  _127
REMARK   56  A    between atoms: _127  and  _128
REMARK   57  A    between atoms: _127  and  _130
REMARK   58  A    between atoms: _130  and  _131
REMARK   59  A    between atoms: _136  and  _137
REMARK   60  A    between atoms: _139  and  _141
REMARK   61  A    between atoms: _141  and  _142
REMARK   62  A    between atoms: _141  and  _144
REMARK   63  A    between atoms: _148  and  _149
REMARK   64  A    between atoms: _154  and  _156
REMARK   65  A    between atoms: _156  and  _157
REMARK   66  A    between atoms: _156  and  _159
REMARK   67  A    between atoms: _159  and  _160
REMARK   68  A    between atoms: _165  and  _166
REMARK   69  A    between atoms: _168  and  _170
REMARK   70  A    between atoms: _170  and  _171
REMARK   71  A    between atoms: _170  and  _173
REMARK   72  A    between atoms: _173  and  _174
REMARK   73  A    between atoms: _177  and  _179
REMARK   74  A    between atoms: _179  and  _180
REMARK   75  A    between atoms: _179  and  _182
REMARK   76  A    between atoms: _182  and  _183
REMARK   77  A    between atoms: _183  and  _184
REMARK   78  A    between atoms: _189  and  _191
REMARK   79  A    between atoms: _191  and  _192
REMARK   80  A    between atoms: _194  and  _196
REMARK   81  A    between atoms: _196  and  _197
REMARK   82  A    between atoms: _196  and  _199
REMARK   83  A    between atoms: _199  and  _200
REMARK   84  A    between atoms: _200  and  _201
REMARK   85  A    between atoms: _201  and  _202
REMARK   86  A    between atoms: _202  and  _203
REMARK   87  A    between atoms: _207  and  _209
REMARK   88  A    between atoms: _209  and  _210
REMARK   89  A    between atoms: _209  and  _212
REMARK   90  A    between atoms: _212  and  _213
REMARK   91  A    between atoms: _223  and  _225
REMARK   92  A    between atoms: _225  and  _226
REMARK   93  A    between atoms: _225  and  _228
REMARK   94  A    between atoms: _228  and  _229
REMARK   95  A    between atoms: _232  and  _234
REMARK   96  A    between atoms: _234  and  _235
REMARK   97  A    between atoms: _234  and  _237
REMARK   98  A    between atoms: _237  and  _238
REMARK   99  A    between atoms: _238  and  _239
REMARK  100  A    between atoms: _239  and  _240
REMARK  101  A    between atoms: _240  and  _241
REMARK  102  A    between atoms: _245  and  _247
REMARK  103  A    between atoms: _247  and  _248
REMARK  104  A    between atoms: _247  and  _250
REMARK  105  A    between atoms: _250  and  _251
REMARK  106  A    between atoms: _257  and  _259
REMARK  107  A    between atoms: _259  and  _260
REMARK  108  A    between atoms: _259  and  _262
REMARK  109  A    between atoms: _262  and  _263
REMARK  110  A    between atoms: _269  and  _271
REMARK  111  A    between atoms: _271  and  _272
REMARK  112  A    between atoms: _271  and  _274
REMARK  113  A    between atoms: _274  and  _275
REMARK  114  A    between atoms: _278  and  _280
REMARK  115  A    between atoms: _280  and  _281
REMARK  116  A    between atoms: _280  and  _283
REMARK  117  A    between atoms: _283  and  _284
REMARK  118  A    between atoms: _286  and  _288
REMARK  119  A    between atoms: _288  and  _289
REMARK  120  A    between atoms: _288  and  _291
REMARK  121  A    between atoms: _291  and  _292
REMARK  122  A    between atoms: _302  and  _304
REMARK  123  A    between atoms: _304  and  _305
REMARK  124  A    between atoms: _307  and  _309
REMARK  125  A    between atoms: _309  and  _310
REMARK  126  A    between atoms: _309  and  _312
REMARK  127  A    between atoms: _312  and  _313
REMARK  128  A    between atoms: _316  and  _318
REMARK  129  A    between atoms: _318  and  _319
REMARK  130  A    between atoms: _318  and  _321
REMARK  131  A    between atoms: _321  and  _322
REMARK  132  A    between atoms: _325  and  _327
REMARK  133  A    between atoms: _327  and  _328
REMARK  134  A    between atoms: _330  and  _332
REMARK  135  A    between atoms: _332  and  _333
REMARK  136  A    between atoms: _332  and  _335
REMARK  137  A    between atoms: _335  and  _336
REMARK  138  A    between atoms: _339  and  _341
REMARK  139  A    between atoms: _341  and  _342
REMARK  140  A    between atoms: _345  and  _347
REMARK  141  A    between atoms: _347  and  _348
REMARK  142  A    between atoms: _347  and  _350
REMARK  143  A    between atoms: _350  and  _351
REMARK  144  A    between atoms: _356  and  _357
REMARK  145  A    between atoms: _359  and  _361
REMARK  146  A    between atoms: _361  and  _362
REMARK  147  A    between atoms: _361  and  _364
REMARK  148  A    between atoms: _364  and  _365
REMARK  149  A    between atoms: _368  and  _370
REMARK  150  A    between atoms: _370  and  _371
REMARK  151  A    between atoms: _374  and  _376
REMARK  152  A    between atoms: _376  and  _377
REMARK  153  A    between atoms: _376  and  _379
REMARK  154  A    between atoms: _379  and  _380
REMARK  155  A    between atoms: _380  and  _381
REMARK  156  A    between atoms: _381  and  _382
REMARK  157  A    between atoms: _391  and  _393
REMARK  158  A    between atoms: _393  and  _394
REMARK  159  A    between atoms: _393  and  _396
REMARK  160  A    between atoms: _396  and  _397
REMARK  161  A    between atoms: _407  and  _409
REMARK  162  A    between atoms: _409  and  _410
REMARK  163  A    between atoms: _409  and  _412
REMARK  164  A    between atoms: _412  and  _413
REMARK  165  A    between atoms: _418  and  _419
REMARK  166  A    between atoms: _421  and  _423
REMARK  167  A    between atoms: _423  and  _424
REMARK  168  A    between atoms: _423  and  _426
REMARK  169  A    between atoms: _426  and  _427
REMARK  170  A    between atoms: _430  and  _432
REMARK  171  A    between atoms: _432  and  _433
REMARK  172  A    between atoms: _432  and  _435
REMARK  173  A    between atoms: _435  and  _436
REMARK  174  A    between atoms: _436  and  _437
REMARK  175  A    between atoms: _437  and  _438
REMARK  176  A    between atoms: _438  and  _439
REMARK  177  A    between atoms: _443  and  _445
REMARK  178  A    between atoms: _445  and  _446
REMARK  179  A    between atoms: _445  and  _448
REMARK  180  A    between atoms: _448  and  _449
REMARK  181  A    between atoms: _452  and  _454
REMARK  182  A    between atoms: _454  and  _455
REMARK  183  A    between atoms: _454  and  _457
REMARK  184  A    between atoms: _460  and  _462
REMARK  185  A    between atoms: _462  and  _463
REMARK  186  A    between atoms: _462  and  _465
REMARK  187  A    between atoms: _465  and  _466
REMARK  188  A    between atoms: _469  and  _471
REMARK  189  A    between atoms: _471  and  _472
REMARK  190  A    between atoms: _471  and  _474
REMARK  191  A    between atoms: _474  and  _475
REMARK  192  A    between atoms: _477  and  _479
REMARK  193  A    between atoms: _479  and  _480
REMARK  194  A    between atoms: _482  and  _484
REMARK  195  A    between atoms: _484  and  _485
REMARK  196  A    between atoms: _484  and  _487
REMARK  197  A    between atoms: _487  and  _488
REMARK  198  A    between atoms: _491  and  _493
REMARK  199  A    between atoms: _493  and  _494
REMARK  200  A    between atoms: _493  and  _496
REMARK  201  A    between atoms: _496  and  _497
REMARK  202  A    between atoms: _500  and  _502
REMARK  203  A    between atoms: _502  and  _503
REMARK  204  A    between atoms: _502  and  _505
REMARK  205  A    between atoms: _505  and  _506
REMARK  206  A    between atoms: _511  and  _513
REMARK  207  A    between atoms: _513  and  _514
REMARK  208  A    between atoms: _513  and  _516
REMARK  209  A    between atoms: _516  and  _517
REMARK  210  A    between atoms: _520  and  _522
REMARK  211  A    between atoms: _522  and  _523
REMARK  212  A    between atoms: _522  and  _525
REMARK  213  A    between atoms: _525  and  _526
REMARK  214  A    between atoms: _526  and  _527
REMARK  215  A    between atoms: _527  and  _528
REMARK  216  A    between atoms: _537  and  _539
REMARK  217  A    between atoms: _539  and  _540
REMARK  218  A    between atoms: _539  and  _542
REMARK  219  A    between atoms: _542  and  _543
REMARK  220  A    between atoms: _546  and  _548
REMARK  221  A    between atoms: _548  and  _549
REMARK  222  A    between atoms: _551  and  _553
REMARK  223  A    between atoms: _553  and  _554
REMARK  224  A    between atoms: _553  and  _556
REMARK  225  A    between atoms: _556  and  _557
REMARK  226  A    between atoms: _557  and  _558
REMARK  227  A    between atoms: _561  and  _563
REMARK  228  A    between atoms: _563  and  _564
REMARK  229  A    between atoms: _563  and  _566
REMARK  230  A    between atoms: _566  and  _567
REMARK  231  A    between atoms: _567  and  _568
REMARK  232  A    between atoms: _568  and  _569
REMARK  233  A    between atoms: _578  and  _580
REMARK  234  A    between atoms: _580  and  _581
REMARK  235  A    between atoms: _580  and  _583
REMARK  236  A    between atoms: _583  and  _584
REMARK  237  A    between atoms: _584  and  _585
REMARK  238  A    between atoms: _585  and  _586
REMARK  239  A    between atoms: _586  and  _587
REMARK  240  A    between atoms: _591  and  _593
REMARK  241  A    between atoms: _593  and  _594
REMARK  242  A    between atoms: _593  and  _596
REMARK  243  A    between atoms: _596  and  _597
REMARK  244  A    between atoms: _603  and  _605
REMARK  245  A    between atoms: _605  and  _606
REMARK  246  A    between atoms: _609  and  _611
REMARK  247  A    between atoms: _611  and  _612
REMARK  248  A    between atoms: _611  and  _614
REMARK  249  A    between atoms: _614  and  _615
REMARK  250  A    between atoms: _618  and  _620
REMARK  251  A    between atoms: _620  and  _621
REMARK  252  A    between atoms: _620  and  _623
REMARK  253  A    between atoms: _623  and  _624
REMARK  254  A    between atoms: _626  and  _628
REMARK  255  A    between atoms: _628  and  _629
REMARK  256  A    between atoms: _628  and  _631
REMARK  257  A    between atoms: _631  and  _632
REMARK  258  A    between atoms: _632  and  _633
REMARK  259  A    between atoms: _638  and  _640
REMARK  260  A    between atoms: _640  and  _641
REMARK  261  A    between atoms: _640  and  _643
REMARK  262  A    between atoms: _643  and  _644
REMARK  263  A    between atoms: _646  and  _648
REMARK  264  A    between atoms: _648  and  _649
REMARK  265  A    between atoms: _648  and  _651
REMARK  266  A    between atoms: _651  and  _652
REMARK  267  A    between atoms: _654  and  _656
REMARK  268  A    between atoms: _656  and  _657
REMARK  269  A    between atoms: _656  and  _659
REMARK  270  A    between atoms: _659  and  _660
REMARK  271  A    between atoms: _663  and  _665
REMARK  272  A    between atoms: _665  and  _666
REMARK  273  A    between atoms: _668  and  _670
REMARK  274  A    between atoms: _670  and  _671
REMARK  275  A    between atoms: _670  and  _673
REMARK  276  A    between atoms: _673  and  _674
REMARK  277  A    between atoms: _677  and  _679
REMARK  278  A    between atoms: _679  and  _680
REMARK  279  A    between atoms: _679  and  _682
REMARK  280  A    between atoms: _685  and  _687
REMARK  281  A    between atoms: _687  and  _688
REMARK  282  A    between atoms: _690  and  _692
REMARK  283  A    between atoms: _692  and  _693
REMARK  284  A    between atoms: _696  and  _698
REMARK  285  A    between atoms: _698  and  _699
REMARK  286  A    between atoms: _698  and  _701
REMARK                            x       y       z     vdW  Elec       q    Type
REMARK                         _______ _______ _______ _____ _____    ______ ____
ROOT
ATOM      1  C   THR A   6      11.855   3.765   3.313  0.00  0.00    +0.243 C 
ATOM      2  O   THR A   6      12.177   4.232   4.401  0.00  0.00    -0.273 OA
ATOM      3  N   THR A   7      11.361   4.509   2.343  0.00  0.00    -0.295 N 
ATOM      4  H   THR A   7      11.125   4.076   1.427  0.00  0.00    +0.150 HD
ENDROOT
BRANCH   3   5
ATOM      5  CA  THR A   7      11.144   5.937   2.549  0.00  0.00    +0.176 C 
BRANCH   5   6
ATOM      6  C   THR A   7      10.138   6.262   3.645  0.00  0.00    +0.243 C 
ATOM      7  O   THR A   7      10.464   6.946   4.622  0.00  0.00    -0.273 OA
ATOM      8  N   ASN A   8       8.908   5.776   3.449  0.00  0.00    -0.297 N 
ATOM      9  H   ASN A   8       8.757   5.152   2.631  0.00  0.00    +0.150 HD
BRANCH   8  10
ATOM     10  CA  ASN A   8       7.754   6.065   4.313  0.00  0.00    +0.158 C 
BRANCH  10  11
ATOM     11  C   ASN A   8       7.584   5.340   5.623  0.00  0.00    +0.241 C 
ATOM     12  N   LEU A   9       6.621   5.847   6.387  0.00  0.00    -0.297 N 
ATOM     13  H   LEU A   9       6.178   6.746   6.110  0.00  0.00    +0.150 HD
ATOM     14  O   ASN A   8       8.298   4.381   5.942  0.00  0.00    -0.273 OA
BRANCH  12  15
ATOM     15  CA  LEU A   9       6.174   5.188   7.586  0.00  0.00    +0.149 C 
BRANCH  15  16
ATOM     16  C   LEU A   9       5.053   4.408   6.870  0.00  0.00    +0.241 C 
ATOM     17  N   ARG A  10       5.136   3.081   6.828  0.00  0.00    -0.298 N 
ATOM     18  H   ARG A  10       5.949   2.593   7.255  0.00  0.00    +0.150 HD
ATOM     19  O   LEU A   9       4.133   5.030   6.302  0.00  0.00    -0.273 OA
BRANCH  17  20
ATOM     20  CA  ARG A  10       4.064   2.306   6.169  0.00  0.00    +0.137 C 
BRANCH  20  21
ATOM     21  C   ARG A  10       3.282   1.649   7.284  0.00  0.00    +0.227 C 
ATOM     22  O   ARG A  10       3.875   1.166   8.258  0.00  0.00    -0.286 OA
ENDBRANCH  20  21
BRANCH  20  23
ATOM     23  CB  ARG A  10       4.662   1.247   5.249  0.00  0.00    +0.031 C 
BRANCH  23  24
ATOM     24  CG  ARG A  10       5.375   1.814   4.053  0.00  0.00    +0.045 C 
BRANCH  24  25
ATOM     25  CD  ARG A  10       4.453   1.623   2.899  0.00  0.00    +0.174 C 
BRANCH  25  26
ATOM     26  NE  ARG A  10       5.161   1.020   1.806  0.00  0.00    -0.265 N 
ATOM     27  HE  ARG A  10       6.200   1.022   1.845  0.00  0.00    +0.259 HD
ATOM     28  CZ  ARG A  10       4.589   0.462   0.753  0.00  0.00    +0.342 C 
ATOM     29  NH2 ARG A  10       3.272   0.388   0.656  0.00  0.00    -0.292 N 
ATOM     30 HH21 ARG A  10       2.672   0.772   1.414  0.00  0.00    +0.255 HD
ATOM     31 HH22 ARG A  10       2.836  -0.054  -0.178  0.00  0.00    +0.255 HD
ATOM     32  NH1 ARG A  10       5.354  -0.049  -0.191  0.00  0.00    -0.292 N 
ATOM     33 HH11 ARG A  10       6.389  -0.009  -0.100  0.00  0.00    +0.255 HD
ATOM     34 HH12 ARG A  10       4.922  -0.492  -1.027  0.00  0.00    +0.255 HD
ENDBRANCH  25  26
ENDBRANCH  24  25
ENDBRANCH  23  24
ENDBRANCH  20  23
ENDBRANCH  17  20
ENDBRANCH  15  16
BRANCH  15  35
ATOM     35  CB  LEU A   9       5.510   6.150   8.574  0.00  0.00    +0.029 C 
BRANCH  35  36
ATOM     36  CG  LEU A   9       5.255   5.707  10.028  0.00  0.00    +0.002 C 
ATOM     37  CD2 LEU A   9       4.049   6.444  10.623  0.00  0.00    +0.000 C 
ATOM     38  CD1 LEU A   9       5.083   4.249  10.154  0.00  0.00    +0.000 C 
ENDBRANCH  35  36
ENDBRANCH  15  35
ENDBRANCH  12  15
ENDBRANCH  10  11
BRANCH  10  39
ATOM     39  CB  ASN A   8       6.446   5.791   3.540  0.00  0.00    +0.114 C 
BRANCH  39  40
ATOM     40  CG  ASN A   8       6.228   6.730   2.365  0.00  0.00    +0.222 C 
ATOM     41  OD1 ASN A   8       7.045   7.623   2.071  0.00  0.00    -0.275 OA
ATOM     42  ND2 ASN A   8       5.104   6.529   1.675  0.00  0.00    -0.329 N 
ATOM     43 HD21 ASN A   8       4.450   5.771   1.956  0.00  0.00    +0.145 HD
ATOM     44 HD22 ASN A   8       4.882   7.130   0.856  0.00  0.00    +0.145 HD
ENDBRANCH  39  40
ENDBRANCH  10  39
ENDBRANCH   8  10
ENDBRANCH   5   6
BRANCH   5  45
ATOM     45  CB  THR A   7      10.623   6.602   1.250  0.00  0.00    +0.137 C 
ATOM     46  CG2 THR A   7      10.341   8.121   1.477  0.00  0.00    +0.034 C 
BRANCH  45  47
ATOM     47  OG1 THR A   7      11.599   6.432   0.208  0.00  0.00    -0.382 OA
ATOM     48  HG1 THR A   7      12.450   6.858   0.482  0.00  0.00    +0.210 HD
ENDBRANCH  45  47
ENDBRANCH   5  45
ENDBRANCH   3   5
BRANCH   1  49
ATOM     49  CA  THR A   6      12.055   2.279   2.997  0.00  0.00    +0.176 C 
BRANCH  49  51
ATOM     50  C   GLY A   5      14.294   1.567   2.487  0.00  0.00    +0.243 C 
ATOM     51  N   THR A   6      13.424   2.003   3.382  0.00  0.00    -0.295 N 
ATOM     52  H   THR A   6      13.724   2.149   4.367  0.00  0.00    +0.150 HD
ATOM     53  O   GLY A   5      13.984   1.329   1.303  0.00  0.00    -0.273 OA
BRANCH  50  54
ATOM     54  CA  GLY A   5      15.701   1.356   3.005  0.00  0.00    +0.176 C 
BRANCH  54  57
ATOM     55  C   SER A   4      16.236   2.493   5.114  0.00  0.00    +0.243 C 
ATOM     56  O   SER A   4      16.456   3.580   4.569  0.00  0.00    -0.273 OA
ATOM     57  N   GLY A   5      15.852   1.392   4.464  0.00  0.00    -0.295 N 
ATOM     58  H   GLY A   5      15.653   0.530   5.011  0.00  0.00    +0.150 HD
BRANCH  55  59
ATOM     59  CA  SER A   4      16.391   2.361   6.632  0.00  0.00    +0.178 C 
BRANCH  59  61
ATOM     60  C   ASP A   3      14.415   1.034   7.112  0.00  0.00    +0.241 C 
ATOM     61  N   SER A   4      15.728   1.179   7.155  0.00  0.00    -0.295 N 
ATOM     62  H   SER A   4      16.305   0.423   7.577  0.00  0.00    +0.150 HD
ATOM     63  O   ASP A   3      13.655   1.886   6.637  0.00  0.00    -0.273 OA
BRANCH  60  64
ATOM     64  CA  ASP A   3      13.873  -0.262   7.698  0.00  0.00    +0.160 C 
BRANCH  64  67
ATOM     65  C   VAL A   2      13.461  -0.971  10.023  0.00  0.00    +0.241 C 
ATOM     66  O   VAL A   2      14.312  -1.870   9.940  0.00  0.00    -0.273 OA
ATOM     67  N   ASP A   3      13.218  -0.116   9.018  0.00  0.00    -0.297 N 
ATOM     68  H   ASP A   3      12.553   0.669   9.170  0.00  0.00    +0.150 HD
BRANCH  65  69
ATOM     69  CA  VAL A   2      12.659  -0.792  11.330  0.00  0.00    +0.148 C 
BRANCH  69  71
ATOM     70  C   ILE A   1      10.691  -2.185  11.204  0.00  0.00    +0.238 C 
ATOM     71  N   VAL A   2      11.978  -2.060  11.528  0.00  0.00    -0.297 N 
ATOM     72  H   VAL A   2      12.495  -2.871  11.923  0.00  0.00    +0.150 HD
ATOM     73  O   ILE A   1      10.016  -1.230  10.822  0.00  0.00    -0.274 OA
BRANCH  70  74
ATOM     74  CA  ILE A   1      10.077  -3.576  11.332  0.00  0.00    +0.145 C 
BRANCH  74  75
ATOM     75  N   ILE A   1       8.637  -3.590  11.497  0.00  0.00    -0.238 NA
ATOM     76  H   ILE A   1       8.050  -3.067  10.816  0.00  0.00    +0.142 HD
ENDBRANCH  74  75
BRANCH  74  77
ATOM     77  CB  ILE A   1      10.500  -4.396  10.049  0.00  0.00    +0.025 C 
ATOM     78  CG2 ILE A   1       9.864  -5.790  10.080  0.00  0.00    +0.002 C 
BRANCH  77  79
ATOM     79  CG1 ILE A   1      10.035  -3.684   8.760  0.00  0.00    +0.002 C 
ATOM     80  CD1 ILE A   1      10.591  -4.377   7.459  0.00  0.00    +0.000 C 
ENDBRANCH  77  79
ENDBRANCH  74  77
ENDBRANCH  70  74
ENDBRANCH  69  71
BRANCH  69  81
ATOM     81  CB  VAL A   2      13.605  -0.489  12.477  0.00  0.00    +0.027 C 
ATOM     82  CG2 VAL A   2      12.809  -0.484  13.799  0.00  0.00    +0.002 C 
ATOM     83  CG1 VAL A   2      14.264   0.843  12.219  0.00  0.00    +0.002 C 
ENDBRANCH  69  81
ENDBRANCH  65  69
ENDBRANCH  64  67
BRANCH  64  84
ATOM     84  CB  ASP A   3      12.881  -0.887   6.674  0.00  0.00    +0.143 C 
BRANCH  84  85
ATOM     85  CG  ASP A   3      13.547  -1.202   5.328  0.00  0.00    +0.367 C 
ATOM     86  OD2 ASP A   3      14.793  -1.142   5.296  0.00  0.00    -0.246 OA
ATOM     87  OD1 ASP A   3      12.844  -1.526   4.313  0.00  0.00    -0.246 OA
ENDBRANCH  84  85
ENDBRANCH  64  84
ENDBRANCH  60  64
ENDBRANCH  59  61
BRANCH  59  88
ATOM     88  CB  SER A   4      17.885   2.313   6.971  0.00  0.00    +0.166 C 
BRANCH  88  89
ATOM     89  OG  SER A   4      18.518   1.127   6.513  0.00  0.00    -0.380 OA
ATOM     90  H   SER A   4      18.429   1.066   5.529  0.00  0.00    +0.211 HD
ENDBRANCH  88  89
ENDBRANCH  59  88
ENDBRANCH  55  59
ENDBRANCH  54  57
ENDBRANCH  50  54
ENDBRANCH  49  51
BRANCH  49  91
ATOM     91  CB  THR A   6      11.046   1.433   3.803  0.00  0.00    +0.137 C 
ATOM     92  CG2 THR A   6       9.621   2.054   3.712  0.00  0.00    +0.034 C 
BRANCH  91  93
ATOM     93  OG1 THR A   6      11.020   0.093   3.280  0.00  0.00    -0.382 OA
ATOM     94  HG1 THR A   6      11.922  -0.307   3.356  0.00  0.00    +0.210 HD
ENDBRANCH  91  93
ENDBRANCH  49  91
ENDBRANCH   1  49
TORSDOF 39
REMARK  Name = ../refined-set-2016/1fkn/1fkn_pocket.pdb
REMARK  286 active torsions:
REMARK  status: ('A' for Active; 'I' for Inactive)
REMARK    1  A    between atoms: _1  and  _3
REMARK    2  A    between atoms: _3  and  _4
REMARK    3  A    between atoms: _3  and  _6
REMARK    4  A    between atoms: _6  and  _7
REMARK    5  A    between atoms: _7  and  _8
REMARK    6  A    between atoms: _8  and  _9
REMARK    7  A    between atoms: _9  and  _10
REMARK    8  A    between atoms: _14  and  _16
REMARK    9  A    between atoms: _16  and  _17
REMARK   10  A    between atoms: _16  and  _19
REMARK   11  A    between atoms: _19  and  _20
REMARK   12  A    between atoms: _22  and  _24
REMARK   13  A    between atoms: _24  and  _25
REMARK   14  A    between atoms: _27  and  _29
REMARK   15  A    between atoms: _29  and  _30
REMARK   16  A    between atoms: _29  and  _32
REMARK   17  A    between atoms: _32  and  _33
REMARK   18  A    between atoms: _33  and  _34
REMARK   19  A    between atoms: _39  and  _41
REMARK   20  A    between atoms: _41  and  _42
REMARK   21  A    between atoms: _44  and  _46
REMARK   22  A    between atoms: _46  and  _47
REMARK   23  A    between atoms: _46  and  _49
REMARK   24  A    between atoms: _49  and  _50
REMARK   25  A    between atoms: _55  and  _56
REMARK   26  A    between atoms: _58  and  _60
REMARK   27  A    between atoms: _60  and  _61
REMARK   28  A    between atoms: _60  and  _63
REMARK   29  A    between atoms: _63  and  _64
REMARK   30  A    between atoms: _67  and  _69
REMARK   31  A    between atoms: _69  and  _70
REMARK   32  A    between atoms: _69  and  _72
REMARK   33  A    between atoms: _75  and  _77
REMARK   34  A    between atoms: _77  and  _78
REMARK   35  A    between atoms: _77  and  _80
REMARK   36  A    between atoms: _80  and  _81
REMARK   37  A    between atoms: _84  and  _86
REMARK   38  A    between atoms: _86  and  _87
REMARK   39  A    between atoms: _86  and  _89
REMARK   40  A    between atoms: _89  and  _90
REMARK   41  A    between atoms: _93  and  _95
REMARK   42  A    between atoms: _95  and  _96
REMARK   43  A    between atoms: _98  and  _100
REMARK   44  A    between atoms: _100  and  _101
REMARK   45  A    between atoms: _100  and  _103
REMARK   46  A    between atoms: _103  and  _104
REMARK   47  A    between atoms: _106  and  _108
REMARK   48  A    between atoms: _108  and  _109
REMARK   49  A    between atoms: _108  and  _111
REMARK   50  A    between atoms: _111  and  _112
REMARK   51  A    between atoms: _114  and  _116
REMARK   52  A    between atoms: _116  and  _117
REMARK   53  A    between atoms: _116  and  _119
REMARK   54  A    between atoms: _119  and  _120
REMARK   55  A    between atoms: _125  and  _127
REMARK   56  A    between atoms: _127  and  _128
REMARK   57  A    between atoms: _127  and  _130
REMARK   58  A    between atoms: _130  and  _131
REMARK   59  A    between atoms: _136  and  _137
REMARK   60  A    between atoms: _139  and  _141
REMARK   61  A    between atoms: _141  and  _142
REMARK   62  A    between atoms: _141  and  _144
REMARK   63  A    between atoms: _148  and  _149
REMARK   64  A    between atoms: _154  and  _156
REMARK   65  A    between atoms: _156  and  _157
REMARK   66  A    between atoms: _156  and  _159
REMARK   67  A    between atoms: _159  and  _160
REMARK   68  A    between atoms: _165  and  _166
REMARK   69  A    between atoms: _168  and  _170
REMARK   70  A    between atoms: _170  and  _171
REMARK   71  A    between atoms: _170  and  _173
REMARK   72  A    between atoms: _173  and  _174
REMARK   73  A    between atoms: _177  and  _179
REMARK   74  A    between atoms: _179  and  _180
REMARK   75  A    between atoms: _179  and  _182
REMARK   76  A    between atoms: _182  and  _183
REMARK   77  A    between atoms: _183  and  _184
REMARK   78  A    between atoms: _189  and  _191
REMARK   79  A    between atoms: _191  and  _192
REMARK   80  A    between atoms: _194  and  _196
REMARK   81  A    between atoms: _196  and  _197
REMARK   82  A    between atoms: _196  and  _199
REMARK   83  A    between atoms: _199  and  _200
REMARK   84  A    between atoms: _200  and  _201
REMARK   85  A    between atoms: _201  and  _202
REMARK   86  A    between atoms: _202  and  _203
REMARK   87  A    between atoms: _207  and  _209
REMARK   88  A    between atoms: _209  and  _210
REMARK   89  A    between atoms: _209  and  _212
REMARK   90  A    between atoms: _212  and  _213
REMARK   91  A    between atoms: _223  and  _225
REMARK   92  A    between atoms: _225  and  _226
REMARK   93  A    between atoms: _225  and  _228
REMARK   94  A    between atoms: _228  and  _229
REMARK   95  A    between atoms: _232  and  _234
REMARK   96  A    between atoms: _234  and  _235
REMARK   97  A    between atoms: _234  and  _237
REMARK   98  A    between atoms: _237  and  _238
REMARK   99  A    between atoms: _238  and  _239
REMARK  100  A    between atoms: _239  and  _240
REMARK  101  A    between atoms: _240  and  _241
REMARK  102  A    between atoms: _245  and  _247
REMARK  103  A    between atoms: _247  and  _248
REMARK  104  A    between atoms: _247  and  _250
REMARK  105  A    between atoms: _250  and  _251
REMARK  106  A    between atoms: _257  and  _259
REMARK  107  A    between atoms: _259  and  _260
REMARK  108  A    between atoms: _259  and  _262
REMARK  109  A    between atoms: _262  and  _263
REMARK  110  A    between atoms: _269  and  _271
REMARK  111  A    between atoms: _271  and  _272
REMARK  112  A    between atoms: _271  and  _274
REMARK  113  A    between atoms: _274  and  _275
REMARK  114  A    between atoms: _278  and  _280
REMARK  115  A    between atoms: _280  and  _281
REMARK  116  A    between atoms: _280  and  _283
REMARK  117  A    between atoms: _283  and  _284
REMARK  118  A    between atoms: _286  and  _288
REMARK  119  A    between atoms: _288  and  _289
REMARK  120  A    between atoms: _288  and  _291
REMARK  121  A    between atoms: _291  and  _292
REMARK  122  A    between atoms: _302  and  _304
REMARK  123  A    between atoms: _304  and  _305
REMARK  124  A    between atoms: _307  and  _309
REMARK  125  A    between atoms: _309  and  _310
REMARK  126  A    between atoms: _309  and  _312
REMARK  127  A    between atoms: _312  and  _313
REMARK  128  A    between atoms: _316  and  _318
REMARK  129  A    between atoms: _318  and  _319
REMARK  130  A    between atoms: _318  and  _321
REMARK  131  A    between atoms: _321  and  _322
REMARK  132  A    between atoms: _325  and  _327
REMARK  133  A    between atoms: _327  and  _328
REMARK  134  A    between atoms: _330  and  _332
REMARK  135  A    between atoms: _332  and  _333
REMARK  136  A    between atoms: _332  and  _335
REMARK  137  A    between atoms: _335  and  _336
REMARK  138  A    between atoms: _339  and  _341
REMARK  139  A    between atoms: _341  and  _342
REMARK  140  A    between atoms: _345  and  _347
REMARK  141  A    between atoms: _347  and  _348
REMARK  142  A    between atoms: _347  and  _350
REMARK  143  A    between atoms: _350  and  _351
REMARK  144  A    between atoms: _356  and  _357
REMARK  145  A    between atoms: _359  and  _361
REMARK  146  A    between atoms: _361  and  _362
REMARK  147  A    between atoms: _361  and  _364
REMARK  148  A    between atoms: _364  and  _365
REMARK  149  A    between atoms: _368  and  _370
REMARK  150  A    between atoms: _370  and  _371
REMARK  151  A    between atoms: _374  and  _376
REMARK  152  A    between atoms: _376  and  _377
REMARK  153  A    between atoms: _376  and  _379
REMARK  154  A    between atoms: _379  and  _380
REMARK  155  A    between atoms: _380  and  _381
REMARK  156  A    between atoms: _381  and  _382
REMARK  157  A    between atoms: _391  and  _393
REMARK  158  A    between atoms: _393  and  _394
REMARK  159  A    between atoms: _393  and  _396
REMARK  160  A    between atoms: _396  and  _397
REMARK  161  A    between atoms: _407  and  _409
REMARK  162  A    between atoms: _409  and  _410
REMARK  163  A    between atoms: _409  and  _412
REMARK  164  A    between atoms: _412  and  _413
REMARK  165  A    between atoms: _418  and  _419
REMARK  166  A    between atoms: _421  and  _423
REMARK  167  A    between atoms: _423  and  _424
REMARK  168  A    between atoms: _423  and  _426
REMARK  169  A    between atoms: _426  and  _427
REMARK  170  A    between atoms: _430  and  _432
REMARK  171  A    between atoms: _432  and  _433
REMARK  172  A    between atoms: _432  and  _435
REMARK  173  A    between atoms: _435  and  _436
REMARK  174  A    between atoms: _436  and  _437
REMARK  175  A    between atoms: _437  and  _438
REMARK  176  A    between atoms: _438  and  _439
REMARK  177  A    between atoms: _443  and  _445
REMARK  178  A    between atoms: _445  and  _446
REMARK  179  A    between atoms: _445  and  _448
REMARK  180  A    between atoms: _448  and  _449
REMARK  181  A    between atoms: _452  and  _454
REMARK  182  A    between atoms: _454  and  _455
REMARK  183  A    between atoms: _454  and  _457
REMARK  184  A    between atoms: _460  and  _462
REMARK  185  A    between atoms: _462  and  _463
REMARK  186  A    between atoms: _462  and  _465
REMARK  187  A    between atoms: _465  and  _466
REMARK  188  A    between atoms: _469  and  _471
REMARK  189  A    between atoms: _471  and  _472
REMARK  190  A    between atoms: _471  and  _474
REMARK  191  A    between atoms: _474  and  _475
REMARK  192  A    between atoms: _477  and  _479
REMARK  193  A    between atoms: _479  and  _480
REMARK  194  A    between atoms: _482  and  _484
REMARK  195  A    between atoms: _484  and  _485
REMARK  196  A    between atoms: _484  and  _487
REMARK  197  A    between atoms: _487  and  _488
REMARK  198  A    between atoms: _491  and  _493
REMARK  199  A    between atoms: _493  and  _494
REMARK  200  A    between atoms: _493  and  _496
REMARK  201  A    between atoms: _496  and  _497
REMARK  202  A    between atoms: _500  and  _502
REMARK  203  A    between atoms: _502  and  _503
REMARK  204  A    between atoms: _502  and  _505
REMARK  205  A    between atoms: _505  and  _506
REMARK  206  A    between atoms: _511  and  _513
REMARK  207  A    between atoms: _513  and  _514
REMARK  208  A    between atoms: _513  and  _516
REMARK  209  A    between atoms: _516  and  _517
REMARK  210  A    between atoms: _520  and  _522
REMARK  211  A    between atoms: _522  and  _523
REMARK  212  A    between atoms: _522  and  _525
REMARK  213  A    between atoms: _525  and  _526
REMARK  214  A    between atoms: _526  and  _527
REMARK  215  A    between atoms: _527  and  _528
REMARK  216  A    between atoms: _537  and  _539
REMARK  217  A    between atoms: _539  and  _540
REMARK  218  A    between atoms: _539  and  _542
REMARK  219  A    between atoms: _542  and  _543
REMARK  220  A    between atoms: _546  and  _548
REMARK  221  A    between atoms: _548  and  _549
REMARK  222  A    between atoms: _551  and  _553
REMARK  223  A    between atoms: _553  and  _554
REMARK  224  A    between atoms: _553  and  _556
REMARK  225  A    between atoms: _556  and  _557
REMARK  226  A    between atoms: _557  and  _558
REMARK  227  A    between atoms: _561  and  _563
REMARK  228  A    between atoms: _563  and  _564
REMARK  229  A    between atoms: _563  and  _566
REMARK  230  A    between atoms: _566  and  _567
REMARK  231  A    between atoms: _567  and  _568
REMARK  232  A    between atoms: _568  and  _569
REMARK  233  A    between atoms: _578  and  _580
REMARK  234  A    between atoms: _580  and  _581
REMARK  235  A    between atoms: _580  and  _583
REMARK  236  A    between atoms: _583  and  _584
REMARK  237  A    between atoms: _584  and  _585
REMARK  238  A    between atoms: _585  and  _586
REMARK  239  A    between atoms: _586  and  _587
REMARK  240  A    between atoms: _591  and  _593
REMARK  241  A    between atoms: _593  and  _594
REMARK  242  A    between atoms: _593  and  _596
REMARK  243  A    between atoms: _596  and  _597
REMARK  244  A    between atoms: _603  and  _605
REMARK  245  A    between atoms: _605  and  _606
REMARK  246  A    between atoms: _609  and  _611
REMARK  247  A    between atoms: _611  and  _612
REMARK  248  A    between atoms: _611  and  _614
REMARK  249  A    between atoms: _614  and  _615
REMARK  250  A    between atoms: _618  and  _620
REMARK  251  A    between atoms: _620  and  _621
REMARK  252  A    between atoms: _620  and  _623
REMARK  253  A    between atoms: _623  and  _624
REMARK  254  A    between atoms: _626  and  _628
REMARK  255  A    between atoms: _628  and  _629
REMARK  256  A    between atoms: _628  and  _631
REMARK  257  A    between atoms: _631  and  _632
REMARK  258  A    between atoms: _632  and  _633
REMARK  259  A    between atoms: _638  and  _640
REMARK  260  A    between atoms: _640  and  _641
REMARK  261  A    between atoms: _640  and  _643
REMARK  262  A    between atoms: _643  and  _644
REMARK  263  A    between atoms: _646  and  _648
REMARK  264  A    between atoms: _648  and  _649
REMARK  265  A    between atoms: _648  and  _651
REMARK  266  A    between atoms: _651  and  _652
REMARK  267  A    between atoms: _654  and  _656
REMARK  268  A    between atoms: _656  and  _657
REMARK  269  A    between atoms: _656  and  _659
REMARK  270  A    between atoms: _659  and  _660
REMARK  271  A    between atoms: _663  and  _665
REMARK  272  A    between atoms: _665  and  _666
REMARK  273  A    between atoms: _668  and  _670
REMARK  274  A    between atoms: _670  and  _671
REMARK  275  A    between atoms: _670  and  _673
REMARK  276  A    between atoms: _673  and  _674
REMARK  277  A    between atoms: _677  and  _679
REMARK  278  A    between atoms: _679  and  _680
REMARK  279  A    between atoms: _679  and  _682
REMARK  280  A    between atoms: _685  and  _687
REMARK  281  A    between atoms: _687  and  _688
REMARK  282  A    between atoms: _690  and  _692
REMARK  283  A    between atoms: _692  and  _693
REMARK  284  A    between atoms: _696  and  _698
REMARK  285  A    between atoms: _698  and  _699
REMARK  286  A    between atoms: _698  and  _701
REMARK                            x       y       z     vdW  Elec       q    Type
REMARK                         _______ _______ _______ _____ _____    ______ ____
ROOT
ATOM      1  CA  GLY A   2       1.158   9.814  -1.238  0.00  0.00    +0.176 C 
ENDROOT
BRANCH   1   3
ATOM      2  C   LEU A   1      -0.979   8.658  -1.337  0.00  0.00    +0.238 C 
ATOM      3  N   GLY A   2      -0.281   9.753  -1.029  0.00  0.00    -0.296 N 
ATOM      4  H   GLY A   2      -0.775  10.578  -0.632  0.00  0.00    +0.150 HD
ATOM      5  O   LEU A   1      -0.470   7.664  -1.836  0.00  0.00    -0.274 OA
BRANCH   2   6
ATOM      6  CA  LEU A   1      -2.486   8.702  -1.053  0.00  0.00    +0.145 C 
BRANCH   6   7
ATOM      7  N   LEU A   1      -2.861  10.009  -0.521  0.00  0.00    -0.238 NA
ATOM      8  H   LEU A   1      -3.162  10.757  -1.177  0.00  0.00    +0.142 HD
ENDBRANCH   6   7
BRANCH   6   9
ATOM      9  CB  LEU A   1      -3.260   8.399  -2.357  0.00  0.00    +0.026 C 
BRANCH   9  10
ATOM     10  CG  LEU A   1      -4.777   8.170  -2.261  0.00  0.00    +0.002 C 
ATOM     11  CD2 LEU A   1      -5.059   6.982  -1.375  0.00  0.00    +0.000 C 
ATOM     12  CD1 LEU A   1      -5.368   7.946  -3.673  0.00  0.00    +0.000 C 
ENDBRANCH   9  10
ENDBRANCH   6   9
ENDBRANCH   2   6
ENDBRANCH   1   3
BRANCH   1  13
ATOM     13  C   GLY A   2       1.594  10.035  -2.685  0.00  0.00    +0.243 C 
ATOM     14  O   GLY A   2       2.778   9.945  -3.000  0.00  0.00    -0.273 OA
ATOM     15  N   GLU A   3       0.642  10.356  -3.554  0.00  0.00    -0.298 N 
ATOM     16  H   GLU A   3      -0.333  10.480  -3.213  0.00  0.00    +0.150 HD
BRANCH  15  17
ATOM     17  CA  GLU A   3       0.923  10.538  -4.962  0.00  0.00    +0.137 C 
BRANCH  17  18
ATOM     18  C   GLU A   3       1.202  11.963  -5.413  0.00  0.00    +0.227 C 
ATOM     19  O   GLU A   3       1.988  12.176  -6.335  0.00  0.00    -0.286 OA
ENDBRANCH  17  18
BRANCH  17  20
ATOM     20  CB  GLU A   3      -0.236   9.983  -5.778  0.00  0.00    +0.039 C 
BRANCH  20  21
ATOM     21  CG  GLU A   3      -0.445   8.498  -5.568  0.00  0.00    +0.116 C 
BRANCH  21  22
ATOM     22  CD  GLU A   3      -1.819   8.042  -6.011  0.00  0.00    +0.365 C 
ATOM     23  OE2 GLU A   3      -2.079   6.819  -5.991  0.00  0.00    -0.246 OA
ATOM     24  OE1 GLU A   3      -2.650   8.904  -6.366  0.00  0.00    -0.246 OA
ENDBRANCH  21  22
ENDBRANCH  20  21
ENDBRANCH  17  20
ENDBRANCH  15  17
ENDBRANCH   1  13
TORSDOF 11
REMARK  Name = ../refined-set-2016/1fkn/1fkn_pocket.pdb
REMARK  286 active torsions:
REMARK  status: ('A' for Active; 'I' for Inactive)
REMARK    1  A    between atoms: _1  and  _3
REMARK    2  A    between atoms: _3  and  _4
REMARK    3  A    between atoms: _3  and  _6
REMARK    4  A    between atoms: _6  and  _7
REMARK    5  A    between atoms: _7  and  _8
REMARK    6  A    between atoms: _8  and  _9
REMARK    7  A    between atoms: _9  and  _10
REMARK    8  A    between atoms: _14  and  _16
REMARK    9  A    between atoms: _16  and  _17
REMARK   10  A    between atoms: _16  and  _19
REMARK   11  A    between atoms: _19  and  _20
REMARK   12  A    between atoms: _22  and  _24
REMARK   13  A    between atoms: _24  and  _25
REMARK   14  A    between atoms: _27  and  _29
REMARK   15  A    between atoms: _29  and  _30
REMARK   16  A    between atoms: _29  and  _32
REMARK   17  A    between atoms: _32  and  _33
REMARK   18  A    between atoms: _33  and  _34
REMARK   19  A    between atoms: _39  and  _41
REMARK   20  A    between atoms: _41  and  _42
REMARK   21  A    between atoms: _44  and  _46
REMARK   22  A    between atoms: _46  and  _47
REMARK   23  A    between atoms: _46  and  _49
REMARK   24  A    between atoms: _49  and  _50
REMARK   25  A    between atoms: _55  and  _56
REMARK   26  A    between atoms: _58  and  _60
REMARK   27  A    between atoms: _60  and  _61
REMARK   28  A    between atoms: _60  and  _63
REMARK   29  A    between atoms: _63  and  _64
REMARK   30  A    between atoms: _67  and  _69
REMARK   31  A    between atoms: _69  and  _70
REMARK   32  A    between atoms: _69  and  _72
REMARK   33  A    between atoms: _75  and  _77
REMARK   34  A    between atoms: _77  and  _78
REMARK   35  A    between atoms: _77  and  _80
REMARK   36  A    between atoms: _80  and  _81
REMARK   37  A    between atoms: _84  and  _86
REMARK   38  A    between atoms: _86  and  _87
REMARK   39  A    between atoms: _86  and  _89
REMARK   40  A    between atoms: _89  and  _90
REMARK   41  A    between atoms: _93  and  _95
REMARK   42  A    between atoms: _95  and  _96
REMARK   43  A    between atoms: _98  and  _100
REMARK   44  A    between atoms: _100  and  _101
REMARK   45  A    between atoms: _100  and  _103
REMARK   46  A    between atoms: _103  and  _104
REMARK   47  A    between atoms: _106  and  _108
REMARK   48  A    between atoms: _108  and  _109
REMARK   49  A    between atoms: _108  and  _111
REMARK   50  A    between atoms: _111  and  _112
REMARK   51  A    between atoms: _114  and  _116
REMARK   52  A    between atoms: _116  and  _117
REMARK   53  A    between atoms: _116  and  _119
REMARK   54  A    between atoms: _119  and  _120
REMARK   55  A    between atoms: _125  and  _127
REMARK   56  A    between atoms: _127  and  _128
REMARK   57  A    between atoms: _127  and  _130
REMARK   58  A    between atoms: _130  and  _131
REMARK   59  A    between atoms: _136  and  _137
REMARK   60  A    between atoms: _139  and  _141
REMARK   61  A    between atoms: _141  and  _142
REMARK   62  A    between atoms: _141  and  _144
REMARK   63  A    between atoms: _148  and  _149
REMARK   64  A    between atoms: _154  and  _156
REMARK   65  A    between atoms: _156  and  _157
REMARK   66  A    between atoms: _156  and  _159
REMARK   67  A    between atoms: _159  and  _160
REMARK   68  A    between atoms: _165  and  _166
REMARK   69  A    between atoms: _168  and  _170
REMARK   70  A    between atoms: _170  and  _171
REMARK   71  A    between atoms: _170  and  _173
REMARK   72  A    between atoms: _173  and  _174
REMARK   73  A    between atoms: _177  and  _179
REMARK   74  A    between atoms: _179  and  _180
REMARK   75  A    between atoms: _179  and  _182
REMARK   76  A    between atoms: _182  and  _183
REMARK   77  A    between atoms: _183  and  _184
REMARK   78  A    between atoms: _189  and  _191
REMARK   79  A    between atoms: _191  and  _192
REMARK   80  A    between atoms: _194  and  _196
REMARK   81  A    between atoms: _196  and  _197
REMARK   82  A    between atoms: _196  and  _199
REMARK   83  A    between atoms: _199  and  _200
REMARK   84  A    between atoms: _200  and  _201
REMARK   85  A    between atoms: _201  and  _202
REMARK   86  A    between atoms: _202  and  _203
REMARK   87  A    between atoms: _207  and  _209
REMARK   88  A    between atoms: _209  and  _210
REMARK   89  A    between atoms: _209  and  _212
REMARK   90  A    between atoms: _212  and  _213
REMARK   91  A    between atoms: _223  and  _225
REMARK   92  A    between atoms: _225  and  _226
REMARK   93  A    between atoms: _225  and  _228
REMARK   94  A    between atoms: _228  and  _229
REMARK   95  A    between atoms: _232  and  _234
REMARK   96  A    between atoms: _234  and  _235
REMARK   97  A    between atoms: _234  and  _237
REMARK   98  A    between atoms: _237  and  _238
REMARK   99  A    between atoms: _238  and  _239
REMARK  100  A    between atoms: _239  and  _240
REMARK  101  A    between atoms: _240  and  _241
REMARK  102  A    between atoms: _245  and  _247
REMARK  103  A    between atoms: _247  and  _248
REMARK  104  A    between atoms: _247  and  _250
REMARK  105  A    between atoms: _250  and  _251
REMARK  106  A    between atoms: _257  and  _259
REMARK  107  A    between atoms: _259  and  _260
REMARK  108  A    between atoms: _259  and  _262
REMARK  109  A    between atoms: _262  and  _263
REMARK  110  A    between atoms: _269  and  _271
REMARK  111  A    between atoms: _271  and  _272
REMARK  112  A    between atoms: _271  and  _274
REMARK  113  A    between atoms: _274  and  _275
REMARK  114  A    between atoms: _278  and  _280
REMARK  115  A    between atoms: _280  and  _281
REMARK  116  A    between atoms: _280  and  _283
REMARK  117  A    between atoms: _283  and  _284
REMARK  118  A    between atoms: _286  and  _288
REMARK  119  A    between atoms: _288  and  _289
REMARK  120  A    between atoms: _288  and  _291
REMARK  121  A    between atoms: _291  and  _292
REMARK  122  A    between atoms: _302  and  _304
REMARK  123  A    between atoms: _304  and  _305
REMARK  124  A    between atoms: _307  and  _309
REMARK  125  A    between atoms: _309  and  _310
REMARK  126  A    between atoms: _309  and  _312
REMARK  127  A    between atoms: _312  and  _313
REMARK  128  A    between atoms: _316  and  _318
REMARK  129  A    between atoms: _318  and  _319
REMARK  130  A    between atoms: _318  and  _321
REMARK  131  A    between atoms: _321  and  _322
REMARK  132  A    between atoms: _325  and  _327
REMARK  133  A    between atoms: _327  and  _328
REMARK  134  A    between atoms: _330  and  _332
REMARK  135  A    between atoms: _332  and  _333
REMARK  136  A    between atoms: _332  and  _335
REMARK  137  A    between atoms: _335  and  _336
REMARK  138  A    between atoms: _339  and  _341
REMARK  139  A    between atoms: _341  and  _342
REMARK  140  A    between atoms: _345  and  _347
REMARK  141  A    between atoms: _347  and  _348
REMARK  142  A    between atoms: _347  and  _350
REMARK  143  A    between atoms: _350  and  _351
REMARK  144  A    between atoms: _356  and  _357
REMARK  145  A    between atoms: _359  and  _361
REMARK  146  A    between atoms: _361  and  _362
REMARK  147  A    between atoms: _361  and  _364
REMARK  148  A    between atoms: _364  and  _365
REMARK  149  A    between atoms: _368  and  _370
REMARK  150  A    between atoms: _370  and  _371
REMARK  151  A    between atoms: _374  and  _376
REMARK  152  A    between atoms: _376  and  _377
REMARK  153  A    between atoms: _376  and  _379
REMARK  154  A    between atoms: _379  and  _380
REMARK  155  A    between atoms: _380  and  _381
REMARK  156  A    between atoms: _381  and  _382
REMARK  157  A    between atoms: _391  and  _393
REMARK  158  A    between atoms: _393  and  _394
REMARK  159  A    between atoms: _393  and  _396
REMARK  160  A    between atoms: _396  and  _397
REMARK  161  A    between atoms: _407  and  _409
REMARK  162  A    between atoms: _409  and  _410
REMARK  163  A    between atoms: _409  and  _412
REMARK  164  A    between atoms: _412  and  _413
REMARK  165  A    between atoms: _418  and  _419
REMARK  166  A    between atoms: _421  and  _423
REMARK  167  A    between atoms: _423  and  _424
REMARK  168  A    between atoms: _423  and  _426
REMARK  169  A    between atoms: _426  and  _427
REMARK  170  A    between atoms: _430  and  _432
REMARK  171  A    between atoms: _432  and  _433
REMARK  172  A    between atoms: _432  and  _435
REMARK  173  A    between atoms: _435  and  _436
REMARK  174  A    between atoms: _436  and  _437
REMARK  175  A    between atoms: _437  and  _438
REMARK  176  A    between atoms: _438  and  _439
REMARK  177  A    between atoms: _443  and  _445
REMARK  178  A    between atoms: _445  and  _446
REMARK  179  A    between atoms: _445  and  _448
REMARK  180  A    between atoms: _448  and  _449
REMARK  181  A    between atoms: _452  and  _454
REMARK  182  A    between atoms: _454  and  _455
REMARK  183  A    between atoms: _454  and  _457
REMARK  184  A    between atoms: _460  and  _462
REMARK  185  A    between atoms: _462  and  _463
REMARK  186  A    between atoms: _462  and  _465
REMARK  187  A    between atoms: _465  and  _466
REMARK  188  A    between atoms: _469  and  _471
REMARK  189  A    between atoms: _471  and  _472
REMARK  190  A    between atoms: _471  and  _474
REMARK  191  A    between atoms: _474  and  _475
REMARK  192  A    between atoms: _477  and  _479
REMARK  193  A    between atoms: _479  and  _480
REMARK  194  A    between atoms: _482  and  _484
REMARK  195  A    between atoms: _484  and  _485
REMARK  196  A    between atoms: _484  and  _487
REMARK  197  A    between atoms: _487  and  _488
REMARK  198  A    between atoms: _491  and  _493
REMARK  199  A    between atoms: _493  and  _494
REMARK  200  A    between atoms: _493  and  _496
REMARK  201  A    between atoms: _496  and  _497
REMARK  202  A    between atoms: _500  and  _502
REMARK  203  A    between atoms: _502  and  _503
REMARK  204  A    between atoms: _502  and  _505
REMARK  205  A    between atoms: _505  and  _506
REMARK  206  A    between atoms: _511  and  _513
REMARK  207  A    between atoms: _513  and  _514
REMARK  208  A    between atoms: _513  and  _516
REMARK  209  A    between atoms: _516  and  _517
REMARK  210  A    between atoms: _520  and  _522
REMARK  211  A    between atoms: _522  and  _523
REMARK  212  A    between atoms: _522  and  _525
REMARK  213  A    between atoms: _525  and  _526
REMARK  214  A    between atoms: _526  and  _527
REMARK  215  A    between atoms: _527  and  _528
REMARK  216  A    between atoms: _537  and  _539
REMARK  217  A    between atoms: _539  and  _540
REMARK  218  A    between atoms: _539  and  _542
REMARK  219  A    between atoms: _542  and  _543
REMARK  220  A    between atoms: _546  and  _548
REMARK  221  A    between atoms: _548  and  _549
REMARK  222  A    between atoms: _551  and  _553
REMARK  223  A    between atoms: _553  and  _554
REMARK  224  A    between atoms: _553  and  _556
REMARK  225  A    between atoms: _556  and  _557
REMARK  226  A    between atoms: _557  and  _558
REMARK  227  A    between atoms: _561  and  _563
REMARK  228  A    between atoms: _563  and  _564
REMARK  229  A    between atoms: _563  and  _566
REMARK  230  A    between atoms: _566  and  _567
REMARK  231  A    between atoms: _567  and  _568
REMARK  232  A    between atoms: _568  and  _569
REMARK  233  A    between atoms: _578  and  _580
REMARK  234  A    between atoms: _580  and  _581
REMARK  235  A    between atoms: _580  and  _583
REMARK  236  A    between atoms: _583  and  _584
REMARK  237  A    between atoms: _584  and  _585
REMARK  238  A    between atoms: _585  and  _586
REMARK  239  A    between atoms: _586  and  _587
REMARK  240  A    between atoms: _591  and  _593
REMARK  241  A    between atoms: _593  and  _594
REMARK  242  A    between atoms: _593  and  _596
REMARK  243  A    between atoms: _596  and  _597
REMARK  244  A    between atoms: _603  and  _605
REMARK  245  A    between atoms: _605  and  _606
REMARK  246  A    between atoms: _609  and  _611
REMARK  247  A    between atoms: _611  and  _612
REMARK  248  A    between atoms: _611  and  _614
REMARK  249  A    between atoms: _614  and  _615
REMARK  250  A    between atoms: _618  and  _620
REMARK  251  A    between atoms: _620  and  _621
REMARK  252  A    between atoms: _620  and  _623
REMARK  253  A    between atoms: _623  and  _624
REMARK  254  A    between atoms: _626  and  _628
REMARK  255  A    between atoms: _628  and  _629
REMARK  256  A    between atoms: _628  and  _631
REMARK  257  A    between atoms: _631  and  _632
REMARK  258  A    between atoms: _632  and  _633
REMARK  259  A    between atoms: _638  and  _640
REMARK  260  A    between atoms: _640  and  _641
REMARK  261  A    between atoms: _640  and  _643
REMARK  262  A    between atoms: _643  and  _644
REMARK  263  A    between atoms: _646  and  _648
REMARK  264  A    between atoms: _648  and  _649
REMARK  265  A    between atoms: _648  and  _651
REMARK  266  A    between atoms: _651  and  _652
REMARK  267  A    between atoms: _654  and  _656
REMARK  268  A    between atoms: _656  and  _657
REMARK  269  A    between atoms: _656  and  _659
REMARK  270  A    between atoms: _659  and  _660
REMARK  271  A    between atoms: _663  and  _665
REMARK  272  A    between atoms: _665  and  _666
REMARK  273  A    between atoms: _668  and  _670
REMARK  274  A    between atoms: _670  and  _671
REMARK  275  A    between atoms: _670  and  _673
REMARK  276  A    between atoms: _673  and  _674
REMARK  277  A    between atoms: _677  and  _679
REMARK  278  A    between atoms: _679  and  _680
REMARK  279  A    between atoms: _679  and  _682
REMARK  280  A    between atoms: _685  and  _687
REMARK  281  A    between atoms: _687  and  _688
REMARK  282  A    between atoms: _690  and  _692
REMARK  283  A    between atoms: _692  and  _693
REMARK  284  A    between atoms: _696  and  _698
REMARK  285  A    between atoms: _698  and  _699
REMARK  286  A    between atoms: _698  and  _701
REMARK                            x       y       z     vdW  Elec       q    Type
REMARK                         _______ _______ _______ _____ _____    ______ ____
ROOT
ATOM      1  NE  ARG A   1       9.493  11.121  -0.182  0.00  0.00    -0.265 N 
ATOM      2  HE  ARG A   1       8.645  10.589   0.100  0.00  0.00    +0.259 HD
ATOM      3  CZ  ARG A   1       9.673  11.350  -1.485  0.00  0.00    +0.342 C 
ATOM      4  NH2 ARG A   1      10.719  12.034  -1.907  0.00  0.00    -0.292 N 
ATOM      5 HH21 ARG A   1      11.412  12.400  -1.223  0.00  0.00    +0.255 HD
ATOM      6 HH22 ARG A   1      10.851  12.208  -2.924  0.00  0.00    +0.255 HD
ATOM      7  NH1 ARG A   1       8.835  10.834  -2.386  0.00  0.00    -0.292 N 
ATOM      8 HH11 ARG A   1       8.034  10.248  -2.075  0.00  0.00    +0.255 HD
ATOM      9 HH12 ARG A   1       8.983  11.018  -3.399  0.00  0.00    +0.255 HD
ENDROOT
BRANCH   1  10
ATOM     10  CD  ARG A   1      10.407  11.566   0.887  0.00  0.00    +0.174 C 
BRANCH  10  11
ATOM     11  CG  ARG A   1      10.245  13.045   1.285  0.00  0.00    +0.045 C 
BRANCH  11  12
ATOM     12  CB  ARG A   1       8.914  13.318   1.962  0.00  0.00    +0.029 C 
BRANCH  12  13
ATOM     13  CA  ARG A   1       8.801  14.714   2.636  0.00  0.00    +0.133 C 
BRANCH  13  14
ATOM     14  N   ARG A   1       7.526  14.810   3.345  0.00  0.00    -0.239 NA
ATOM     15  H   ARG A   1       6.706  14.280   2.987  0.00  0.00    +0.142 HD
ENDBRANCH  13  14
BRANCH  13  16
ATOM     16  C   ARG A   1       9.030  15.803   1.606  0.00  0.00    +0.224 C 
ATOM     17  O   ARG A   1       8.271  15.939   0.652  0.00  0.00    -0.287 OA
ENDBRANCH  13  16
ENDBRANCH  12  13
ENDBRANCH  11  12
ENDBRANCH  10  11
ENDBRANCH   1  10
TORSDOF 6
REMARK  Name = ../refined-set-2016/1fkn/1fkn_pocket.pdb
REMARK  286 active torsions:
REMARK  status: ('A' for Active; 'I' for Inactive)
REMARK    1  A    between atoms: _1  and  _3
REMARK    2  A    between atoms: _3  and  _4
REMARK    3  A    between atoms: _3  and  _6
REMARK    4  A    between atoms: _6  and  _7
REMARK    5  A    between atoms: _7  and  _8
REMARK    6  A    between atoms: _8  and  _9
REMARK    7  A    between atoms: _9  and  _10
REMARK    8  A    between atoms: _14  and  _16
REMARK    9  A    between atoms: _16  and  _17
REMARK   10  A    between atoms: _16  and  _19
REMARK   11  A    between atoms: _19  and  _20
REMARK   12  A    between atoms: _22  and  _24
REMARK   13  A    between atoms: _24  and  _25
REMARK   14  A    between atoms: _27  and  _29
REMARK   15  A    between atoms: _29  and  _30
REMARK   16  A    between atoms: _29  and  _32
REMARK   17  A    between atoms: _32  and  _33
REMARK   18  A    between atoms: _33  and  _34
REMARK   19  A    between atoms: _39  and  _41
REMARK   20  A    between atoms: _41  and  _42
REMARK   21  A    between atoms: _44  and  _46
REMARK   22  A    between atoms: _46  and  _47
REMARK   23  A    between atoms: _46  and  _49
REMARK   24  A    between atoms: _49  and  _50
REMARK   25  A    between atoms: _55  and  _56
REMARK   26  A    between atoms: _58  and  _60
REMARK   27  A    between atoms: _60  and  _61
REMARK   28  A    between atoms: _60  and  _63
REMARK   29  A    between atoms: _63  and  _64
REMARK   30  A    between atoms: _67  and  _69
REMARK   31  A    between atoms: _69  and  _70
REMARK   32  A    between atoms: _69  and  _72
REMARK   33  A    between atoms: _75  and  _77
REMARK   34  A    between atoms: _77  and  _78
REMARK   35  A    between atoms: _77  and  _80
REMARK   36  A    between atoms: _80  and  _81
REMARK   37  A    between atoms: _84  and  _86
REMARK   38  A    between atoms: _86  and  _87
REMARK   39  A    between atoms: _86  and  _89
REMARK   40  A    between atoms: _89  and  _90
REMARK   41  A    between atoms: _93  and  _95
REMARK   42  A    between atoms: _95  and  _96
REMARK   43  A    between atoms: _98  and  _100
REMARK   44  A    between atoms: _100  and  _101
REMARK   45  A    between atoms: _100  and  _103
REMARK   46  A    between atoms: _103  and  _104
REMARK   47  A    between atoms: _106  and  _108
REMARK   48  A    between atoms: _108  and  _109
REMARK   49  A    between atoms: _108  and  _111
REMARK   50  A    between atoms: _111  and  _112
REMARK   51  A    between atoms: _114  and  _116
REMARK   52  A    between atoms: _116  and  _117
REMARK   53  A    between atoms: _116  and  _119
REMARK   54  A    between atoms: _119  and  _120
REMARK   55  A    between atoms: _125  and  _127
REMARK   56  A    between atoms: _127  and  _128
REMARK   57  A    between atoms: _127  and  _130
REMARK   58  A    between atoms: _130  and  _131
REMARK   59  A    between atoms: _136  and  _137
REMARK   60  A    between atoms: _139  and  _141
REMARK   61  A    between atoms: _141  and  _142
REMARK   62  A    between atoms: _141  and  _144
REMARK   63  A    between atoms: _148  and  _149
REMARK   64  A    between atoms: _154  and  _156
REMARK   65  A    between atoms: _156  and  _157
REMARK   66  A    between atoms: _156  and  _159
REMARK   67  A    between atoms: _159  and  _160
REMARK   68  A    between atoms: _165  and  _166
REMARK   69  A    between atoms: _168  and  _170
REMARK   70  A    between atoms: _170  and  _171
REMARK   71  A    between atoms: _170  and  _173
REMARK   72  A    between atoms: _173  and  _174
REMARK   73  A    between atoms: _177  and  _179
REMARK   74  A    between atoms: _179  and  _180
REMARK   75  A    between atoms: _179  and  _182
REMARK   76  A    between atoms: _182  and  _183
REMARK   77  A    between atoms: _183  and  _184
REMARK   78  A    between atoms: _189  and  _191
REMARK   79  A    between atoms: _191  and  _192
REMARK   80  A    between atoms: _194  and  _196
REMARK   81  A    between atoms: _196  and  _197
REMARK   82  A    between atoms: _196  and  _199
REMARK   83  A    between atoms: _199  and  _200
REMARK   84  A    between atoms: _200  and  _201
REMARK   85  A    between atoms: _201  and  _202
REMARK   86  A    between atoms: _202  and  _203
REMARK   87  A    between atoms: _207  and  _209
REMARK   88  A    between atoms: _209  and  _210
REMARK   89  A    between atoms: _209  and  _212
REMARK   90  A    between atoms: _212  and  _213
REMARK   91  A    between atoms: _223  and  _225
REMARK   92  A    between atoms: _225  and  _226
REMARK   93  A    between atoms: _225  and  _228
REMARK   94  A    between atoms: _228  and  _229
REMARK   95  A    between atoms: _232  and  _234
REMARK   96  A    between atoms: _234  and  _235
REMARK   97  A    between atoms: _234  and  _237
REMARK   98  A    between atoms: _237  and  _238
REMARK   99  A    between atoms: _238  and  _239
REMARK  100  A    between atoms: _239  and  _240
REMARK  101  A    between atoms: _240  and  _241
REMARK  102  A    between atoms: _245  and  _247
REMARK  103  A    between atoms: _247  and  _248
REMARK  104  A    between atoms: _247  and  _250
REMARK  105  A    between atoms: _250  and  _251
REMARK  106  A    between atoms: _257  and  _259
REMARK  107  A    between atoms: _259  and  _260
REMARK  108  A    between atoms: _259  and  _262
REMARK  109  A    between atoms: _262  and  _263
REMARK  110  A    between atoms: _269  and  _271
REMARK  111  A    between atoms: _271  and  _272
REMARK  112  A    between atoms: _271  and  _274
REMARK  113  A    between atoms: _274  and  _275
REMARK  114  A    between atoms: _278  and  _280
REMARK  115  A    between atoms: _280  and  _281
REMARK  116  A    between atoms: _280  and  _283
REMARK  117  A    between atoms: _283  and  _284
REMARK  118  A    between atoms: _286  and  _288
REMARK  119  A    between atoms: _288  and  _289
REMARK  120  A    between atoms: _288  and  _291
REMARK  121  A    between atoms: _291  and  _292
REMARK  122  A    between atoms: _302  and  _304
REMARK  123  A    between atoms: _304  and  _305
REMARK  124  A    between atoms: _307  and  _309
REMARK  125  A    between atoms: _309  and  _310
REMARK  126  A    between atoms: _309  and  _312
REMARK  127  A    between atoms: _312  and  _313
REMARK  128  A    between atoms: _316  and  _318
REMARK  129  A    between atoms: _318  and  _319
REMARK  130  A    between atoms: _318  and  _321
REMARK  131  A    between atoms: _321  and  _322
REMARK  132  A    between atoms: _325  and  _327
REMARK  133  A    between atoms: _327  and  _328
REMARK  134  A    between atoms: _330  and  _332
REMARK  135  A    between atoms: _332  and  _333
REMARK  136  A    between atoms: _332  and  _335
REMARK  137  A    between atoms: _335  and  _336
REMARK  138  A    between atoms: _339  and  _341
REMARK  139  A    between atoms: _341  and  _342
REMARK  140  A    between atoms: _345  and  _347
REMARK  141  A    between atoms: _347  and  _348
REMARK  142  A    between atoms: _347  and  _350
REMARK  143  A    between atoms: _350  and  _351
REMARK  144  A    between atoms: _356  and  _357
REMARK  145  A    between atoms: _359  and  _361
REMARK  146  A    between atoms: _361  and  _362
REMARK  147  A    between atoms: _361  and  _364
REMARK  148  A    between atoms: _364  and  _365
REMARK  149  A    between atoms: _368  and  _370
REMARK  150  A    between atoms: _370  and  _371
REMARK  151  A    between atoms: _374  and  _376
REMARK  152  A    between atoms: _376  and  _377
REMARK  153  A    between atoms: _376  and  _379
REMARK  154  A    between atoms: _379  and  _380
REMARK  155  A    between atoms: _380  and  _381
REMARK  156  A    between atoms: _381  and  _382
REMARK  157  A    between atoms: _391  and  _393
REMARK  158  A    between atoms: _393  and  _394
REMARK  159  A    between atoms: _393  and  _396
REMARK  160  A    between atoms: _396  and  _397
REMARK  161  A    between atoms: _407  and  _409
REMARK  162  A    between atoms: _409  and  _410
REMARK  163  A    between atoms: _409  and  _412
REMARK  164  A    between atoms: _412  and  _413
REMARK  165  A    between atoms: _418  and  _419
REMARK  166  A    between atoms: _421  and  _423
REMARK  167  A    between atoms: _423  and  _424
REMARK  168  A    between atoms: _423  and  _426
REMARK  169  A    between atoms: _426  and  _427
REMARK  170  A    between atoms: _430  and  _432
REMARK  171  A    between atoms: _432  and  _433
REMARK  172  A    between atoms: _432  and  _435
REMARK  173  A    between atoms: _435  and  _436
REMARK  174  A    between atoms: _436  and  _437
REMARK  175  A    between atoms: _437  and  _438
REMARK  176  A    between atoms: _438  and  _439
REMARK  177  A    between atoms: _443  and  _445
REMARK  178  A    between atoms: _445  and  _446
REMARK  179  A    between atoms: _445  and  _448
REMARK  180  A    between atoms: _448  and  _449
REMARK  181  A    between atoms: _452  and  _454
REMARK  182  A    between atoms: _454  and  _455
REMARK  183  A    between atoms: _454  and  _457
REMARK  184  A    between atoms: _460  and  _462
REMARK  185  A    between atoms: _462  and  _463
REMARK  186  A    between atoms: _462  and  _465
REMARK  187  A    between atoms: _465  and  _466
REMARK  188  A    between atoms: _469  and  _471
REMARK  189  A    between atoms: _471  and  _472
REMARK  190  A    between atoms: _471  and  _474
REMARK  191  A    between atoms: _474  and  _475
REMARK  192  A    between atoms: _477  and  _479
REMARK  193  A    between atoms: _479  and  _480
REMARK  194  A    between atoms: _482  and  _484
REMARK  195  A    between atoms: _484  and  _485
REMARK  196  A    between atoms: _484  and  _487
REMARK  197  A    between atoms: _487  and  _488
REMARK  198  A    between atoms: _491  and  _493
REMARK  199  A    between atoms: _493  and  _494
REMARK  200  A    between atoms: _493  and  _496
REMARK  201  A    between atoms: _496  and  _497
REMARK  202  A    between atoms: _500  and  _502
REMARK  203  A    between atoms: _502  and  _503
REMARK  204  A    between atoms: _502  and  _505
REMARK  205  A    between atoms: _505  and  _506
REMARK  206  A    between atoms: _511  and  _513
REMARK  207  A    between atoms: _513  and  _514
REMARK  208  A    between atoms: _513  and  _516
REMARK  209  A    between atoms: _516  and  _517
REMARK  210  A    between atoms: _520  and  _522
REMARK  211  A    between atoms: _522  and  _523
REMARK  212  A    between atoms: _522  and  _525
REMARK  213  A    between atoms: _525  and  _526
REMARK  214  A    between atoms: _526  and  _527
REMARK  215  A    between atoms: _527  and  _528
REMARK  216  A    between atoms: _537  and  _539
REMARK  217  A    between atoms: _539  and  _540
REMARK  218  A    between atoms: _539  and  _542
REMARK  219  A    between atoms: _542  and  _543
REMARK  220  A    between atoms: _546  and  _548
REMARK  221  A    between atoms: _548  and  _549
REMARK  222  A    between atoms: _551  and  _553
REMARK  223  A    between atoms: _553  and  _554
REMARK  224  A    between atoms: _553  and  _556
REMARK  225  A    between atoms: _556  and  _557
REMARK  226  A    between atoms: _557  and  _558
REMARK  227  A    between atoms: _561  and  _563
REMARK  228  A    between atoms: _563  and  _564
REMARK  229  A    between atoms: _563  and  _566
REMARK  230  A    between atoms: _566  and  _567
REMARK  231  A    between atoms: _567  and  _568
REMARK  232  A    between atoms: _568  and  _569
REMARK  233  A    between atoms: _578  and  _580
REMARK  234  A    between atoms: _580  and  _581
REMARK  235  A    between atoms: _580  and  _583
REMARK  236  A    between atoms: _583  and  _584
REMARK  237  A    between atoms: _584  and  _585
REMARK  238  A    between atoms: _585  and  _586
REMARK  239  A    between atoms: _586  and  _587
REMARK  240  A    between atoms: _591  and  _593
REMARK  241  A    between atoms: _593  and  _594
REMARK  242  A    between atoms: _593  and  _596
REMARK  243  A    between atoms: _596  and  _597
REMARK  244  A    between atoms: _603  and  _605
REMARK  245  A    between atoms: _605  and  _606
REMARK  246  A    between atoms: _609  and  _611
REMARK  247  A    between atoms: _611  and  _612
REMARK  248  A    between atoms: _611  and  _614
REMARK  249  A    between atoms: _614  and  _615
REMARK  250  A    between atoms: _618  and  _620
REMARK  251  A    between atoms: _620  and  _621
REMARK  252  A    between atoms: _620  and  _623
REMARK  253  A    between atoms: _623  and  _624
REMARK  254  A    between atoms: _626  and  _628
REMARK  255  A    between atoms: _628  and  _629
REMARK  256  A    between atoms: _628  and  _631
REMARK  257  A    between atoms: _631  and  _632
REMARK  258  A    between atoms: _632  and  _633
REMARK  259  A    between atoms: _638  and  _640
REMARK  260  A    between atoms: _640  and  _641
REMARK  261  A    between atoms: _640  and  _643
REMARK  262  A    between atoms: _643  and  _644
REMARK  263  A    between atoms: _646  and  _648
REMARK  264  A    between atoms: _648  and  _649
REMARK  265  A    between atoms: _648  and  _651
REMARK  266  A    between atoms: _651  and  _652
REMARK  267  A    between atoms: _654  and  _656
REMARK  268  A    between atoms: _656  and  _657
REMARK  269  A    between atoms: _656  and  _659
REMARK  270  A    between atoms: _659  and  _660
REMARK  271  A    between atoms: _663  and  _665
REMARK  272  A    between atoms: _665  and  _666
REMARK  273  A    between atoms: _668  and  _670
REMARK  274  A    between atoms: _670  and  _671
REMARK  275  A    between atoms: _670  and  _673
REMARK  276  A    between atoms: _673  and  _674
REMARK  277  A    between atoms: _677  and  _679
REMARK  278  A    between atoms: _679  and  _680
REMARK  279  A    between atoms: _679  and  _682
REMARK  280  A    between atoms: _685  and  _687
REMARK  281  A    between atoms: _687  and  _688
REMARK  282  A    between atoms: _690  and  _692
REMARK  283  A    between atoms: _692  and  _693
REMARK  284  A    between atoms: _696  and  _698
REMARK  285  A    between atoms: _698  and  _699
REMARK  286  A    between atoms: _698  and  _701
REMARK                            x       y       z     vdW  Elec       q    Type
REMARK                         _______ _______ _______ _____ _____    ______ ____
ROOT
ATOM      1  CA  GLN A   6      -0.639   1.764   3.484  0.00  0.00    +0.149 C 
ENDROOT
BRANCH   1   2
ATOM      2  C   GLN A   6       0.342   0.645   3.165  0.00  0.00    +0.241 C 
ATOM      3  N   SER A   7       0.211  -0.447   3.910  0.00  0.00    -0.295 N 
ATOM      4  H   SER A   7      -0.522  -0.459   4.648  0.00  0.00    +0.150 HD
ATOM      5  O   GLN A   6       1.179   0.778   2.279  0.00  0.00    -0.273 OA
BRANCH   3   6
ATOM      6  CA  SER A   7       1.052  -1.637   3.741  0.00  0.00    +0.178 C 
BRANCH   6   7
ATOM      7  C   SER A   7       0.202  -2.916   3.805  0.00  0.00    +0.243 C 
ATOM      8  O   SER A   7      -0.783  -2.977   4.555  0.00  0.00    -0.273 OA
ATOM      9  N   SER A   8       0.606  -3.937   3.045  0.00  0.00    -0.295 N 
ATOM     10  H   SER A   8       1.414  -3.809   2.403  0.00  0.00    +0.150 HD
BRANCH   9  11
ATOM     11  CA  SER A   8      -0.067  -5.228   3.101  0.00  0.00    +0.178 C 
BRANCH  11  12
ATOM     12  C   SER A   8       0.899  -6.240   3.771  0.00  0.00    +0.243 C 
ATOM     13  N   THR A   9       2.063  -5.760   4.206  0.00  0.00    -0.295 N 
ATOM     14  H   THR A   9       2.284  -4.754   4.066  0.00  0.00    +0.150 HD
ATOM     15  O   SER A   8       0.590  -7.424   3.894  0.00  0.00    -0.273 OA
BRANCH  13  16
ATOM     16  CA  THR A   9       3.037  -6.622   4.878  0.00  0.00    +0.176 C 
BRANCH  16  17
ATOM     17  C   THR A   9       3.520  -6.090   6.221  0.00  0.00    +0.243 C 
ATOM     18  N   GLY A  10       2.614  -5.399   6.920  0.00  0.00    -0.295 N 
ATOM     19  H   GLY A  10       1.684  -5.222   6.489  0.00  0.00    +0.150 HD
ATOM     20  O   THR A   9       4.681  -6.307   6.607  0.00  0.00    -0.273 OA
BRANCH  18  21
ATOM     21  CA  GLY A  10       2.868  -4.887   8.248  0.00  0.00    +0.176 C 
BRANCH  21  22
ATOM     22  C   GLY A  10       3.409  -3.472   8.342  0.00  0.00    +0.243 C 
ATOM     23  N   THR A  11       3.697  -3.042   9.565  0.00  0.00    -0.295 N 
ATOM     24  H   THR A  11       3.523  -3.655  10.387  0.00  0.00    +0.150 HD
ATOM     25  O   GLY A  10       3.562  -2.774   7.343  0.00  0.00    -0.273 OA
BRANCH  23  26
ATOM     26  CA  THR A  11       4.256  -1.712   9.755  0.00  0.00    +0.176 C 
BRANCH  26  27
ATOM     27  C   THR A  11       5.714  -1.638   9.315  0.00  0.00    +0.243 C 
ATOM     28  O   THR A  11       6.500  -2.595   9.531  0.00  0.00    -0.273 OA
ATOM     29  N   VAL A  12       6.073  -0.524   8.665  0.00  0.00    -0.298 N 
ATOM     30  H   VAL A  12       5.353   0.190   8.432  0.00  0.00    +0.150 HD
BRANCH  29  31
ATOM     31  CA  VAL A  12       7.446  -0.302   8.284  0.00  0.00    +0.137 C 
BRANCH  31  32
ATOM     32  CB  VAL A  12       7.709  -0.335   6.773  0.00  0.00    +0.026 C 
ATOM     33  CG2 VAL A  12       9.190  -0.290   6.547  0.00  0.00    +0.002 C 
ATOM     34  CG1 VAL A  12       7.124  -1.616   6.137  0.00  0.00    +0.002 C 
ENDBRANCH  31  32
BRANCH  31  35
ATOM     35  C   VAL A  12       7.889   1.069   8.792  0.00  0.00    +0.227 C 
ATOM     36  O   VAL A  12       7.411   2.109   8.327  0.00  0.00    -0.286 OA
ENDBRANCH  31  35
ENDBRANCH  29  31
ENDBRANCH  26  27
BRANCH  26  37
ATOM     37  CB  THR A  11       4.157  -1.298  11.222  0.00  0.00    +0.137 C 
ATOM     38  CG2 THR A  11       4.895   0.018  11.479  0.00  0.00    +0.034 C 
BRANCH  37  39
ATOM     39  OG1 THR A  11       2.779  -1.167  11.560  0.00  0.00    -0.382 OA
ATOM     40  HG1 THR A  11       2.697  -0.899  12.509  0.00  0.00    +0.210 HD
ENDBRANCH  37  39
ENDBRANCH  26  37
ENDBRANCH  23  26
ENDBRANCH  21  22
ENDBRANCH  18  21
ENDBRANCH  16  17
BRANCH  16  41
ATOM     41  CB  THR A   9       4.244  -6.884   3.975  0.00  0.00    +0.137 C 
ATOM     42  CG2 THR A   9       3.754  -7.523   2.685  0.00  0.00    +0.034 C 
BRANCH  41  43
ATOM     43  OG1 THR A   9       4.900  -5.642   3.678  0.00  0.00    -0.382 OA
ATOM     44  HG1 THR A   9       5.204  -5.221   4.521  0.00  0.00    +0.210 HD
ENDBRANCH  41  43
ENDBRANCH  16  41
ENDBRANCH  13  16
ENDBRANCH  11  12
BRANCH  11  45
ATOM     45  CB  SER A   8      -0.455  -5.703   1.692  0.00  0.00    +0.166 C 
BRANCH  45  46
ATOM     46  OG  SER A   8       0.701  -5.848   0.873  0.00  0.00    -0.380 OA
ATOM     47  H   SER A   8       1.164  -4.976   0.801  0.00  0.00    +0.211 HD
ENDBRANCH  45  46
ENDBRANCH  11  45
ENDBRANCH   9  11
ENDBRANCH   6   7
BRANCH   6  48
ATOM     48  CB  SER A   7       2.094  -1.717   4.874  0.00  0.00    +0.166 C 
BRANCH  48  49
ATOM     49  OG  SER A   7       2.905  -2.895   4.745  0.00  0.00    -0.380 OA
ATOM     50  H   SER A   7       3.564  -2.923   5.483  0.00  0.00    +0.211 HD
ENDBRANCH  48  49
ENDBRANCH   6  48
ENDBRANCH   3   6
ENDBRANCH   1   2
BRANCH   1  53
ATOM     51  C   SER A   5       0.819   3.649   3.682  0.00  0.00    +0.243 C 
ATOM     52  O   SER A   5       1.332   3.161   4.678  0.00  0.00    -0.273 OA
ATOM     53  N   GLN A   6      -0.154   3.039   3.019  0.00  0.00    -0.297 N 
ATOM     54  H   GLN A   6      -0.564   3.477   2.170  0.00  0.00    +0.150 HD
BRANCH  51  55
ATOM     55  CA  SER A   5       1.265   5.008   3.168  0.00  0.00    +0.178 C 
BRANCH  55  57
ATOM     56  C   ILE A   4       1.940   7.039   4.247  0.00  0.00    +0.241 C 
ATOM     57  N   SER A   5       2.098   5.725   4.152  0.00  0.00    -0.295 N 
ATOM     58  H   SER A   5       2.783   5.219   4.749  0.00  0.00    +0.150 HD
ATOM     59  O   ILE A   4       1.130   7.663   3.521  0.00  0.00    -0.273 OA
BRANCH  56  60
ATOM     60  CA  ILE A   4       2.808   7.787   5.261  0.00  0.00    +0.149 C 
BRANCH  60  63
ATOM     61  C   ALA A   3       4.731   9.005   4.433  0.00  0.00    +0.241 C 
ATOM     62  O   ALA A   3       5.504   8.319   5.118  0.00  0.00    -0.273 OA
ATOM     63  N   ILE A   4       3.415   8.865   4.489  0.00  0.00    -0.297 N 
ATOM     64  H   ILE A   4       2.806   9.533   3.975  0.00  0.00    +0.150 HD
BRANCH  61  65
ATOM     65  CA  ALA A   3       5.232  10.106   3.513  0.00  0.00    +0.149 C 
ATOM     66  CB  ALA A   3       6.684  10.500   3.856  0.00  0.00    +0.031 C 
BRANCH  65  68
ATOM     67  C   PHE A   2       3.461  11.462   2.533  0.00  0.00    +0.241 C 
ATOM     68  N   ALA A   3       4.415  11.315   3.455  0.00  0.00    -0.297 N 
ATOM     69  H   ALA A   3       4.579  12.076   4.145  0.00  0.00    +0.150 HD
ATOM     70  O   PHE A   2       3.146  10.554   1.769  0.00  0.00    -0.273 OA
BRANCH  67  71
ATOM     71  CA  PHE A   2       2.704  12.819   2.502  0.00  0.00    +0.153 C 
BRANCH  71  74
ATOM     72  C   LYS A   1       4.264  14.078   1.060  0.00  0.00    +0.238 C 
ATOM     73  O   LYS A   1       5.135  14.207   1.941  0.00  0.00    -0.274 OA
ATOM     74  N   PHE A   2       3.101  13.463   1.252  0.00  0.00    -0.297 N 
ATOM     75  H   PHE A   2       2.429  13.439   0.459  0.00  0.00    +0.150 HD
BRANCH  72  76
ATOM     76  CA  LYS A   1       4.476  14.651  -0.349  0.00  0.00    +0.145 C 
BRANCH  76  77
ATOM     77  N   LYS A   1       5.378  15.741  -0.116  0.00  0.00    -0.238 NA
ATOM     78  H   LYS A   1       6.303  15.540   0.316  0.00  0.00    +0.142 HD
ENDBRANCH  76  77
BRANCH  76  79
ATOM     79  CB  LYS A   1       5.086  13.584  -1.267  0.00  0.00    +0.026 C 
BRANCH  79  80
ATOM     80  CG  LYS A   1       4.925  13.898  -2.764  0.00  0.00    -0.000 C 
BRANCH  80  81
ATOM     81  CD  LYS A   1       5.525  12.800  -3.600  0.00  0.00    -0.024 C 
BRANCH  81  82
ATOM     82  CE  LYS A   1       5.332  13.093  -5.109  0.00  0.00    -0.086 C 
BRANCH  82  83
ATOM     83  NZ  LYS A   1       6.002  12.055  -5.982  0.00  0.00    +0.380 N 
ATOM     84  HZ1 LYS A   1       5.596  11.119  -5.779  0.00  0.00    -0.089 HD
ATOM     85  HZ2 LYS A   1       7.023  12.042  -5.782  0.00  0.00    -0.089 HD
ATOM     86  HZ3 LYS A   1       5.846  12.292  -6.982  0.00  0.00    -0.089 HD
ENDBRANCH  82  83
ENDBRANCH  81  82
ENDBRANCH  80  81
ENDBRANCH  79  80
ENDBRANCH  76  79
ENDBRANCH  72  76
ENDBRANCH  71  74
BRANCH  71  87
ATOM     87  CB  PHE A   2       1.181  12.609   2.462  0.00  0.00    +0.055 C 
BRANCH  87  88
ATOM     88  CG  PHE A   2       0.597  12.027   3.721  0.00  0.00    -0.020 A 
ATOM     89  CD2 PHE A   2       0.754  12.680   4.960  0.00  0.00    -0.004 A 
ATOM     90  CE2 PHE A   2       0.147  12.156   6.127  0.00  0.00    -0.000 A 
ATOM     91  CZ  PHE A   2      -0.615  10.985   6.074  0.00  0.00    -0.000 A 
ATOM     92  CE1 PHE A   2      -0.772  10.332   4.855  0.00  0.00    -0.000 A 
ATOM     93  CD1 PHE A   2      -0.153  10.869   3.671  0.00  0.00    -0.004 A 
ENDBRANCH  87  88
ENDBRANCH  71  87
ENDBRANCH  67  71
ENDBRANCH  65  68
ENDBRANCH  61  65
ENDBRANCH  60  63
BRANCH  60  94
ATOM     94  CB  ILE A   4       1.909   8.309   6.418  0.00  0.00    +0.027 C 
ATOM     95  CG2 ILE A   4       1.274   7.106   7.163  0.00  0.00    +0.002 C 
BRANCH  94  96
ATOM     96  CG1 ILE A   4       2.751   9.174   7.375  0.00  0.00    +0.002 C 
ATOM     97  CD1 ILE A   4       1.983   9.706   8.629  0.00  0.00    +0.000 C 
ENDBRANCH  94  96
ENDBRANCH  60  94
ENDBRANCH  56  60
ENDBRANCH  55  57
BRANCH  55  98
ATOM     98  CB  SER A   5       2.009   4.880   1.844  0.00  0.00    +0.166 C 
BRANCH  98  99
ATOM     99  OG  SER A   5       3.201   4.148   2.025  0.00  0.00    -0.380 OA
ATOM    100  H   SER A   5       3.675   4.072   1.159  0.00  0.00    +0.211 HD
ENDBRANCH  98  99
ENDBRANCH  55  98
ENDBRANCH  51  55
ENDBRANCH   1  53
BRANCH   1 101
ATOM    101  CB  GLN A   6      -2.035   1.455   2.897  0.00  0.00    +0.039 C 
BRANCH 101 102
ATOM    102  CG  GLN A   6      -2.227   1.824   1.445  0.00  0.00    +0.087 C 
BRANCH 102 103
ATOM    103  CD  GLN A   6      -3.700   2.177   1.133  0.00  0.00    +0.219 C 
ATOM    104  OE1 GLN A   6      -4.612   1.354   1.360  0.00  0.00    -0.275 OA
ATOM    105  NE2 GLN A   6      -3.935   3.411   0.632  0.00  0.00    -0.329 N 
ATOM    106 HE21 GLN A   6      -3.142   4.062   0.460  0.00  0.00    +0.145 HD
ATOM    107 HE22 GLN A   6      -4.908   3.709   0.419  0.00  0.00    +0.145 HD
ENDBRANCH 102 103
ENDBRANCH 101 102
ENDBRANCH   1 101
TORSDOF 47
REMARK  Name = ../refined-set-2016/1fkn/1fkn_pocket.pdb
REMARK  286 active torsions:
REMARK  status: ('A' for Active; 'I' for Inactive)
REMARK    1  A    between atoms: _1  and  _3
REMARK    2  A    between atoms: _3  and  _4
REMARK    3  A    between atoms: _3  and  _6
REMARK    4  A    between atoms: _6  and  _7
REMARK    5  A    between atoms: _7  and  _8
REMARK    6  A    between atoms: _8  and  _9
REMARK    7  A    between atoms: _9  and  _10
REMARK    8  A    between atoms: _14  and  _16
REMARK    9  A    between atoms: _16  and  _17
REMARK   10  A    between atoms: _16  and  _19
REMARK   11  A    between atoms: _19  and  _20
REMARK   12  A    between atoms: _22  and  _24
REMARK   13  A    between atoms: _24  and  _25
REMARK   14  A    between atoms: _27  and  _29
REMARK   15  A    between atoms: _29  and  _30
REMARK   16  A    between atoms: _29  and  _32
REMARK   17  A    between atoms: _32  and  _33
REMARK   18  A    between atoms: _33  and  _34
REMARK   19  A    between atoms: _39  and  _41
REMARK   20  A    between atoms: _41  and  _42
REMARK   21  A    between atoms: _44  and  _46
REMARK   22  A    between atoms: _46  and  _47
REMARK   23  A    between atoms: _46  and  _49
REMARK   24  A    between atoms: _49  and  _50
REMARK   25  A    between atoms: _55  and  _56
REMARK   26  A    between atoms: _58  and  _60
REMARK   27  A    between atoms: _60  and  _61
REMARK   28  A    between atoms: _60  and  _63
REMARK   29  A    between atoms: _63  and  _64
REMARK   30  A    between atoms: _67  and  _69
REMARK   31  A    between atoms: _69  and  _70
REMARK   32  A    between atoms: _69  and  _72
REMARK   33  A    between atoms: _75  and  _77
REMARK   34  A    between atoms: _77  and  _78
REMARK   35  A    between atoms: _77  and  _80
REMARK   36  A    between atoms: _80  and  _81
REMARK   37  A    between atoms: _84  and  _86
REMARK   38  A    between atoms: _86  and  _87
REMARK   39  A    between atoms: _86  and  _89
REMARK   40  A    between atoms: _89  and  _90
REMARK   41  A    between atoms: _93  and  _95
REMARK   42  A    between atoms: _95  and  _96
REMARK   43  A    between atoms: _98  and  _100
REMARK   44  A    between atoms: _100  and  _101
REMARK   45  A    between atoms: _100  and  _103
REMARK   46  A    between atoms: _103  and  _104
REMARK   47  A    between atoms: _106  and  _108
REMARK   48  A    between atoms: _108  and  _109
REMARK   49  A    between atoms: _108  and  _111
REMARK   50  A    between atoms: _111  and  _112
REMARK   51  A    between atoms: _114  and  _116
REMARK   52  A    between atoms: _116  and  _117
REMARK   53  A    between atoms: _116  and  _119
REMARK   54  A    between atoms: _119  and  _120
REMARK   55  A    between atoms: _125  and  _127
REMARK   56  A    between atoms: _127  and  _128
REMARK   57  A    between atoms: _127  and  _130
REMARK   58  A    between atoms: _130  and  _131
REMARK   59  A    between atoms: _136  and  _137
REMARK   60  A    between atoms: _139  and  _141
REMARK   61  A    between atoms: _141  and  _142
REMARK   62  A    between atoms: _141  and  _144
REMARK   63  A    between atoms: _148  and  _149
REMARK   64  A    between atoms: _154  and  _156
REMARK   65  A    between atoms: _156  and  _157
REMARK   66  A    between atoms: _156  and  _159
REMARK   67  A    between atoms: _159  and  _160
REMARK   68  A    between atoms: _165  and  _166
REMARK   69  A    between atoms: _168  and  _170
REMARK   70  A    between atoms: _170  and  _171
REMARK   71  A    between atoms: _170  and  _173
REMARK   72  A    between atoms: _173  and  _174
REMARK   73  A    between atoms: _177  and  _179
REMARK   74  A    between atoms: _179  and  _180
REMARK   75  A    between atoms: _179  and  _182
REMARK   76  A    between atoms: _182  and  _183
REMARK   77  A    between atoms: _183  and  _184
REMARK   78  A    between atoms: _189  and  _191
REMARK   79  A    between atoms: _191  and  _192
REMARK   80  A    between atoms: _194  and  _196
REMARK   81  A    between atoms: _196  and  _197
REMARK   82  A    between atoms: _196  and  _199
REMARK   83  A    between atoms: _199  and  _200
REMARK   84  A    between atoms: _200  and  _201
REMARK   85  A    between atoms: _201  and  _202
REMARK   86  A    between atoms: _202  and  _203
REMARK   87  A    between atoms: _207  and  _209
REMARK   88  A    between atoms: _209  and  _210
REMARK   89  A    between atoms: _209  and  _212
REMARK   90  A    between atoms: _212  and  _213
REMARK   91  A    between atoms: _223  and  _225
REMARK   92  A    between atoms: _225  and  _226
REMARK   93  A    between atoms: _225  and  _228
REMARK   94  A    between atoms: _228  and  _229
REMARK   95  A    between atoms: _232  and  _234
REMARK   96  A    between atoms: _234  and  _235
REMARK   97  A    between atoms: _234  and  _237
REMARK   98  A    between atoms: _237  and  _238
REMARK   99  A    between atoms: _238  and  _239
REMARK  100  A    between atoms: _239  and  _240
REMARK  101  A    between atoms: _240  and  _241
REMARK  102  A    between atoms: _245  and  _247
REMARK  103  A    between atoms: _247  and  _248
REMARK  104  A    between atoms: _247  and  _250
REMARK  105  A    between atoms: _250  and  _251
REMARK  106  A    between atoms: _257  and  _259
REMARK  107  A    between atoms: _259  and  _260
REMARK  108  A    between atoms: _259  and  _262
REMARK  109  A    between atoms: _262  and  _263
REMARK  110  A    between atoms: _269  and  _271
REMARK  111  A    between atoms: _271  and  _272
REMARK  112  A    between atoms: _271  and  _274
REMARK  113  A    between atoms: _274  and  _275
REMARK  114  A    between atoms: _278  and  _280
REMARK  115  A    between atoms: _280  and  _281
REMARK  116  A    between atoms: _280  and  _283
REMARK  117  A    between atoms: _283  and  _284
REMARK  118  A    between atoms: _286  and  _288
REMARK  119  A    between atoms: _288  and  _289
REMARK  120  A    between atoms: _288  and  _291
REMARK  121  A    between atoms: _291  and  _292
REMARK  122  A    between atoms: _302  and  _304
REMARK  123  A    between atoms: _304  and  _305
REMARK  124  A    between atoms: _307  and  _309
REMARK  125  A    between atoms: _309  and  _310
REMARK  126  A    between atoms: _309  and  _312
REMARK  127  A    between atoms: _312  and  _313
REMARK  128  A    between atoms: _316  and  _318
REMARK  129  A    between atoms: _318  and  _319
REMARK  130  A    between atoms: _318  and  _321
REMARK  131  A    between atoms: _321  and  _322
REMARK  132  A    between atoms: _325  and  _327
REMARK  133  A    between atoms: _327  and  _328
REMARK  134  A    between atoms: _330  and  _332
REMARK  135  A    between atoms: _332  and  _333
REMARK  136  A    between atoms: _332  and  _335
REMARK  137  A    between atoms: _335  and  _336
REMARK  138  A    between atoms: _339  and  _341
REMARK  139  A    between atoms: _341  and  _342
REMARK  140  A    between atoms: _345  and  _347
REMARK  141  A    between atoms: _347  and  _348
REMARK  142  A    between atoms: _347  and  _350
REMARK  143  A    between atoms: _350  and  _351
REMARK  144  A    between atoms: _356  and  _357
REMARK  145  A    between atoms: _359  and  _361
REMARK  146  A    between atoms: _361  and  _362
REMARK  147  A    between atoms: _361  and  _364
REMARK  148  A    between atoms: _364  and  _365
REMARK  149  A    between atoms: _368  and  _370
REMARK  150  A    between atoms: _370  and  _371
REMARK  151  A    between atoms: _374  and  _376
REMARK  152  A    between atoms: _376  and  _377
REMARK  153  A    between atoms: _376  and  _379
REMARK  154  A    between atoms: _379  and  _380
REMARK  155  A    between atoms: _380  and  _381
REMARK  156  A    between atoms: _381  and  _382
REMARK  157  A    between atoms: _391  and  _393
REMARK  158  A    between atoms: _393  and  _394
REMARK  159  A    between atoms: _393  and  _396
REMARK  160  A    between atoms: _396  and  _397
REMARK  161  A    between atoms: _407  and  _409
REMARK  162  A    between atoms: _409  and  _410
REMARK  163  A    between atoms: _409  and  _412
REMARK  164  A    between atoms: _412  and  _413
REMARK  165  A    between atoms: _418  and  _419
REMARK  166  A    between atoms: _421  and  _423
REMARK  167  A    between atoms: _423  and  _424
REMARK  168  A    between atoms: _423  and  _426
REMARK  169  A    between atoms: _426  and  _427
REMARK  170  A    between atoms: _430  and  _432
REMARK  171  A    between atoms: _432  and  _433
REMARK  172  A    between atoms: _432  and  _435
REMARK  173  A    between atoms: _435  and  _436
REMARK  174  A    between atoms: _436  and  _437
REMARK  175  A    between atoms: _437  and  _438
REMARK  176  A    between atoms: _438  and  _439
REMARK  177  A    between atoms: _443  and  _445
REMARK  178  A    between atoms: _445  and  _446
REMARK  179  A    between atoms: _445  and  _448
REMARK  180  A    between atoms: _448  and  _449
REMARK  181  A    between atoms: _452  and  _454
REMARK  182  A    between atoms: _454  and  _455
REMARK  183  A    between atoms: _454  and  _457
REMARK  184  A    between atoms: _460  and  _462
REMARK  185  A    between atoms: _462  and  _463
REMARK  186  A    between atoms: _462  and  _465
REMARK  187  A    between atoms: _465  and  _466
REMARK  188  A    between atoms: _469  and  _471
REMARK  189  A    between atoms: _471  and  _472
REMARK  190  A    between atoms: _471  and  _474
REMARK  191  A    between atoms: _474  and  _475
REMARK  192  A    between atoms: _477  and  _479
REMARK  193  A    between atoms: _479  and  _480
REMARK  194  A    between atoms: _482  and  _484
REMARK  195  A    between atoms: _484  and  _485
REMARK  196  A    between atoms: _484  and  _487
REMARK  197  A    between atoms: _487  and  _488
REMARK  198  A    between atoms: _491  and  _493
REMARK  199  A    between atoms: _493  and  _494
REMARK  200  A    between atoms: _493  and  _496
REMARK  201  A    between atoms: _496  and  _497
REMARK  202  A    between atoms: _500  and  _502
REMARK  203  A    between atoms: _502  and  _503
REMARK  204  A    between atoms: _502  and  _505
REMARK  205  A    between atoms: _505  and  _506
REMARK  206  A    between atoms: _511  and  _513
REMARK  207  A    between atoms: _513  and  _514
REMARK  208  A    between atoms: _513  and  _516
REMARK  209  A    between atoms: _516  and  _517
REMARK  210  A    between atoms: _520  and  _522
REMARK  211  A    between atoms: _522  and  _523
REMARK  212  A    between atoms: _522  and  _525
REMARK  213  A    between atoms: _525  and  _526
REMARK  214  A    between atoms: _526  and  _527
REMARK  215  A    between atoms: _527  and  _528
REMARK  216  A    between atoms: _537  and  _539
REMARK  217  A    between atoms: _539  and  _540
REMARK  218  A    between atoms: _539  and  _542
REMARK  219  A    between atoms: _542  and  _543
REMARK  220  A    between atoms: _546  and  _548
REMARK  221  A    between atoms: _548  and  _549
REMARK  222  A    between atoms: _551  and  _553
REMARK  223  A    between atoms: _553  and  _554
REMARK  224  A    between atoms: _553  and  _556
REMARK  225  A    between atoms: _556  and  _557
REMARK  226  A    between atoms: _557  and  _558
REMARK  227  A    between atoms: _561  and  _563
REMARK  228  A    between atoms: _563  and  _564
REMARK  229  A    between atoms: _563  and  _566
REMARK  230  A    between atoms: _566  and  _567
REMARK  231  A    between atoms: _567  and  _568
REMARK  232  A    between atoms: _568  and  _569
REMARK  233  A    between atoms: _578  and  _580
REMARK  234  A    between atoms: _580  and  _581
REMARK  235  A    between atoms: _580  and  _583
REMARK  236  A    between atoms: _583  and  _584
REMARK  237  A    between atoms: _584  and  _585
REMARK  238  A    between atoms: _585  and  _586
REMARK  239  A    between atoms: _586  and  _587
REMARK  240  A    between atoms: _591  and  _593
REMARK  241  A    between atoms: _593  and  _594
REMARK  242  A    between atoms: _593  and  _596
REMARK  243  A    between atoms: _596  and  _597
REMARK  244  A    between atoms: _603  and  _605
REMARK  245  A    between atoms: _605  and  _606
REMARK  246  A    between atoms: _609  and  _611
REMARK  247  A    between atoms: _611  and  _612
REMARK  248  A    between atoms: _611  and  _614
REMARK  249  A    between atoms: _614  and  _615
REMARK  250  A    between atoms: _618  and  _620
REMARK  251  A    between atoms: _620  and  _621
REMARK  252  A    between atoms: _620  and  _623
REMARK  253  A    between atoms: _623  and  _624
REMARK  254  A    between atoms: _626  and  _628
REMARK  255  A    between atoms: _628  and  _629
REMARK  256  A    between atoms: _628  and  _631
REMARK  257  A    between atoms: _631  and  _632
REMARK  258  A    between atoms: _632  and  _633
REMARK  259  A    between atoms: _638  and  _640
REMARK  260  A    between atoms: _640  and  _641
REMARK  261  A    between atoms: _640  and  _643
REMARK  262  A    between atoms: _643  and  _644
REMARK  263  A    between atoms: _646  and  _648
REMARK  264  A    between atoms: _648  and  _649
REMARK  265  A    between atoms: _648  and  _651
REMARK  266  A    between atoms: _651  and  _652
REMARK  267  A    between atoms: _654  and  _656
REMARK  268  A    between atoms: _656  and  _657
REMARK  269  A    between atoms: _656  and  _659
REMARK  270  A    between atoms: _659  and  _660
REMARK  271  A    between atoms: _663  and  _665
REMARK  272  A    between atoms: _665  and  _666
REMARK  273  A    between atoms: _668  and  _670
REMARK  274  A    between atoms: _670  and  _671
REMARK  275  A    between atoms: _670  and  _673
REMARK  276  A    between atoms: _673  and  _674
REMARK  277  A    between atoms: _677  and  _679
REMARK  278  A    between atoms: _679  and  _680
REMARK  279  A    between atoms: _679  and  _682
REMARK  280  A    between atoms: _685  and  _687
REMARK  281  A    between atoms: _687  and  _688
REMARK  282  A    between atoms: _690  and  _692
REMARK  283  A    between atoms: _692  and  _693
REMARK  284  A    between atoms: _696  and  _698
REMARK  285  A    between atoms: _698  and  _699
REMARK  286  A    between atoms: _698  and  _701
REMARK                            x       y       z     vdW  Elec       q    Type
REMARK                         _______ _______ _______ _____ _____    ______ ____
ROOT
ATOM      1  C   ALA A   2      12.839   7.930   7.347  0.00  0.00    +0.241 C 
ATOM      2  O   ALA A   2      13.464   8.671   8.090  0.00  0.00    -0.273 OA
ATOM      3  N   VAL A   3      11.574   8.171   7.036  0.00  0.00    -0.298 N 
ATOM      4  H   VAL A   3      11.028   7.533   6.423  0.00  0.00    +0.150 HD
ENDROOT
BRANCH   1   5
ATOM      5  CA  ALA A   2      13.509   6.698   6.761  0.00  0.00    +0.149 C 
ATOM      6  CB  ALA A   2      14.175   7.067   5.388  0.00  0.00    +0.031 C 
BRANCH   5   9
ATOM      7  C   GLY A   1      11.944   5.034   7.639  0.00  0.00    +0.240 C 
ATOM      8  O   GLY A   1      12.007   5.468   8.793  0.00  0.00    -0.274 OA
ATOM      9  N   ALA A   2      12.619   5.561   6.609  0.00  0.00    -0.297 N 
ATOM     10  H   ALA A   2      12.501   5.140   5.665  0.00  0.00    +0.150 HD
BRANCH   7  11
ATOM     11  CA  GLY A   1      11.096   3.808   7.310  0.00  0.00    +0.169 C 
BRANCH  11  12
ATOM     12  N   GLY A   1      10.131   3.411   8.303  0.00  0.00    -0.236 NA
ATOM     13  H   GLY A   1       9.139   3.700   8.184  0.00  0.00    +0.142 HD
ENDBRANCH  11  12
ENDBRANCH   7  11
ENDBRANCH   5   9
ENDBRANCH   1   5
BRANCH   3  14
ATOM     14  CA  VAL A   3      10.992   9.379   7.601  0.00  0.00    +0.137 C 
BRANCH  14  15
ATOM     15  CB  VAL A   3       9.732   9.845   6.807  0.00  0.00    +0.026 C 
ATOM     16  CG2 VAL A   3       8.614   8.823   6.895  0.00  0.00    +0.002 C 
ATOM     17  CG1 VAL A   3      10.169  10.139   5.312  0.00  0.00    +0.002 C 
ENDBRANCH  14  15
BRANCH  14  18
ATOM     18  C   VAL A   3      10.780   9.282   9.098  0.00  0.00    +0.227 C 
ATOM     19  O   VAL A   3      10.687  10.300   9.784  0.00  0.00    -0.286 OA
ENDBRANCH  14  18
ENDBRANCH   3  14
TORSDOF 7
REMARK  Name = ../refined-set-2016/1fkn/1fkn_pocket.pdb
REMARK  286 active torsions:
REMARK  status: ('A' for Active; 'I' for Inactive)
REMARK    1  A    between atoms: _1  and  _3
REMARK    2  A    between atoms: _3  and  _4
REMARK    3  A    between atoms: _3  and  _6
REMARK    4  A    between atoms: _6  and  _7
REMARK    5  A    between atoms: _7  and  _8
REMARK    6  A    between atoms: _8  and  _9
REMARK    7  A    between atoms: _9  and  _10
REMARK    8  A    between atoms: _14  and  _16
REMARK    9  A    between atoms: _16  and  _17
REMARK   10  A    between atoms: _16  and  _19
REMARK   11  A    between atoms: _19  and  _20
REMARK   12  A    between atoms: _22  and  _24
REMARK   13  A    between atoms: _24  and  _25
REMARK   14  A    between atoms: _27  and  _29
REMARK   15  A    between atoms: _29  and  _30
REMARK   16  A    between atoms: _29  and  _32
REMARK   17  A    between atoms: _32  and  _33
REMARK   18  A    between atoms: _33  and  _34
REMARK   19  A    between atoms: _39  and  _41
REMARK   20  A    between atoms: _41  and  _42
REMARK   21  A    between atoms: _44  and  _46
REMARK   22  A    between atoms: _46  and  _47
REMARK   23  A    between atoms: _46  and  _49
REMARK   24  A    between atoms: _49  and  _50
REMARK   25  A    between atoms: _55  and  _56
REMARK   26  A    between atoms: _58  and  _60
REMARK   27  A    between atoms: _60  and  _61
REMARK   28  A    between atoms: _60  and  _63
REMARK   29  A    between atoms: _63  and  _64
REMARK   30  A    between atoms: _67  and  _69
REMARK   31  A    between atoms: _69  and  _70
REMARK   32  A    between atoms: _69  and  _72
REMARK   33  A    between atoms: _75  and  _77
REMARK   34  A    between atoms: _77  and  _78
REMARK   35  A    between atoms: _77  and  _80
REMARK   36  A    between atoms: _80  and  _81
REMARK   37  A    between atoms: _84  and  _86
REMARK   38  A    between atoms: _86  and  _87
REMARK   39  A    between atoms: _86  and  _89
REMARK   40  A    between atoms: _89  and  _90
REMARK   41  A    between atoms: _93  and  _95
REMARK   42  A    between atoms: _95  and  _96
REMARK   43  A    between atoms: _98  and  _100
REMARK   44  A    between atoms: _100  and  _101
REMARK   45  A    between atoms: _100  and  _103
REMARK   46  A    between atoms: _103  and  _104
REMARK   47  A    between atoms: _106  and  _108
REMARK   48  A    between atoms: _108  and  _109
REMARK   49  A    between atoms: _108  and  _111
REMARK   50  A    between atoms: _111  and  _112
REMARK   51  A    between atoms: _114  and  _116
REMARK   52  A    between atoms: _116  and  _117
REMARK   53  A    between atoms: _116  and  _119
REMARK   54  A    between atoms: _119  and  _120
REMARK   55  A    between atoms: _125  and  _127
REMARK   56  A    between atoms: _127  and  _128
REMARK   57  A    between atoms: _127  and  _130
REMARK   58  A    between atoms: _130  and  _131
REMARK   59  A    between atoms: _136  and  _137
REMARK   60  A    between atoms: _139  and  _141
REMARK   61  A    between atoms: _141  and  _142
REMARK   62  A    between atoms: _141  and  _144
REMARK   63  A    between atoms: _148  and  _149
REMARK   64  A    between atoms: _154  and  _156
REMARK   65  A    between atoms: _156  and  _157
REMARK   66  A    between atoms: _156  and  _159
REMARK   67  A    between atoms: _159  and  _160
REMARK   68  A    between atoms: _165  and  _166
REMARK   69  A    between atoms: _168  and  _170
REMARK   70  A    between atoms: _170  and  _171
REMARK   71  A    between atoms: _170  and  _173
REMARK   72  A    between atoms: _173  and  _174
REMARK   73  A    between atoms: _177  and  _179
REMARK   74  A    between atoms: _179  and  _180
REMARK   75  A    between atoms: _179  and  _182
REMARK   76  A    between atoms: _182  and  _183
REMARK   77  A    between atoms: _183  and  _184
REMARK   78  A    between atoms: _189  and  _191
REMARK   79  A    between atoms: _191  and  _192
REMARK   80  A    between atoms: _194  and  _196
REMARK   81  A    between atoms: _196  and  _197
REMARK   82  A    between atoms: _196  and  _199
REMARK   83  A    between atoms: _199  and  _200
REMARK   84  A    between atoms: _200  and  _201
REMARK   85  A    between atoms: _201  and  _202
REMARK   86  A    between atoms: _202  and  _203
REMARK   87  A    between atoms: _207  and  _209
REMARK   88  A    between atoms: _209  and  _210
REMARK   89  A    between atoms: _209  and  _212
REMARK   90  A    between atoms: _212  and  _213
REMARK   91  A    between atoms: _223  and  _225
REMARK   92  A    between atoms: _225  and  _226
REMARK   93  A    between atoms: _225  and  _228
REMARK   94  A    between atoms: _228  and  _229
REMARK   95  A    between atoms: _232  and  _234
REMARK   96  A    between atoms: _234  and  _235
REMARK   97  A    between atoms: _234  and  _237
REMARK   98  A    between atoms: _237  and  _238
REMARK   99  A    between atoms: _238  and  _239
REMARK  100  A    between atoms: _239  and  _240
REMARK  101  A    between atoms: _240  and  _241
REMARK  102  A    between atoms: _245  and  _247
REMARK  103  A    between atoms: _247  and  _248
REMARK  104  A    between atoms: _247  and  _250
REMARK  105  A    between atoms: _250  and  _251
REMARK  106  A    between atoms: _257  and  _259
REMARK  107  A    between atoms: _259  and  _260
REMARK  108  A    between atoms: _259  and  _262
REMARK  109  A    between atoms: _262  and  _263
REMARK  110  A    between atoms: _269  and  _271
REMARK  111  A    between atoms: _271  and  _272
REMARK  112  A    between atoms: _271  and  _274
REMARK  113  A    between atoms: _274  and  _275
REMARK  114  A    between atoms: _278  and  _280
REMARK  115  A    between atoms: _280  and  _281
REMARK  116  A    between atoms: _280  and  _283
REMARK  117  A    between atoms: _283  and  _284
REMARK  118  A    between atoms: _286  and  _288
REMARK  119  A    between atoms: _288  and  _289
REMARK  120  A    between atoms: _288  and  _291
REMARK  121  A    between atoms: _291  and  _292
REMARK  122  A    between atoms: _302  and  _304
REMARK  123  A    between atoms: _304  and  _305
REMARK  124  A    between atoms: _307  and  _309
REMARK  125  A    between atoms: _309  and  _310
REMARK  126  A    between atoms: _309  and  _312
REMARK  127  A    between atoms: _312  and  _313
REMARK  128  A    between atoms: _316  and  _318
REMARK  129  A    between atoms: _318  and  _319
REMARK  130  A    between atoms: _318  and  _321
REMARK  131  A    between atoms: _321  and  _322
REMARK  132  A    between atoms: _325  and  _327
REMARK  133  A    between atoms: _327  and  _328
REMARK  134  A    between atoms: _330  and  _332
REMARK  135  A    between atoms: _332  and  _333
REMARK  136  A    between atoms: _332  and  _335
REMARK  137  A    between atoms: _335  and  _336
REMARK  138  A    between atoms: _339  and  _341
REMARK  139  A    between atoms: _341  and  _342
REMARK  140  A    between atoms: _345  and  _347
REMARK  141  A    between atoms: _347  and  _348
REMARK  142  A    between atoms: _347  and  _350
REMARK  143  A    between atoms: _350  and  _351
REMARK  144  A    between atoms: _356  and  _357
REMARK  145  A    between atoms: _359  and  _361
REMARK  146  A    between atoms: _361  and  _362
REMARK  147  A    between atoms: _361  and  _364
REMARK  148  A    between atoms: _364  and  _365
REMARK  149  A    between atoms: _368  and  _370
REMARK  150  A    between atoms: _370  and  _371
REMARK  151  A    between atoms: _374  and  _376
REMARK  152  A    between atoms: _376  and  _377
REMARK  153  A    between atoms: _376  and  _379
REMARK  154  A    between atoms: _379  and  _380
REMARK  155  A    between atoms: _380  and  _381
REMARK  156  A    between atoms: _381  and  _382
REMARK  157  A    between atoms: _391  and  _393
REMARK  158  A    between atoms: _393  and  _394
REMARK  159  A    between atoms: _393  and  _396
REMARK  160  A    between atoms: _396  and  _397
REMARK  161  A    between atoms: _407  and  _409
REMARK  162  A    between atoms: _409  and  _410
REMARK  163  A    between atoms: _409  and  _412
REMARK  164  A    between atoms: _412  and  _413
REMARK  165  A    between atoms: _418  and  _419
REMARK  166  A    between atoms: _421  and  _423
REMARK  167  A    between atoms: _423  and  _424
REMARK  168  A    between atoms: _423  and  _426
REMARK  169  A    between atoms: _426  and  _427
REMARK  170  A    between atoms: _430  and  _432
REMARK  171  A    between atoms: _432  and  _433
REMARK  172  A    between atoms: _432  and  _435
REMARK  173  A    between atoms: _435  and  _436
REMARK  174  A    between atoms: _436  and  _437
REMARK  175  A    between atoms: _437  and  _438
REMARK  176  A    between atoms: _438  and  _439
REMARK  177  A    between atoms: _443  and  _445
REMARK  178  A    between atoms: _445  and  _446
REMARK  179  A    between atoms: _445  and  _448
REMARK  180  A    between atoms: _448  and  _449
REMARK  181  A    between atoms: _452  and  _454
REMARK  182  A    between atoms: _454  and  _455
REMARK  183  A    between atoms: _454  and  _457
REMARK  184  A    between atoms: _460  and  _462
REMARK  185  A    between atoms: _462  and  _463
REMARK  186  A    between atoms: _462  and  _465
REMARK  187  A    between atoms: _465  and  _466
REMARK  188  A    between atoms: _469  and  _471
REMARK  189  A    between atoms: _471  and  _472
REMARK  190  A    between atoms: _471  and  _474
REMARK  191  A    between atoms: _474  and  _475
REMARK  192  A    between atoms: _477  and  _479
REMARK  193  A    between atoms: _479  and  _480
REMARK  194  A    between atoms: _482  and  _484
REMARK  195  A    between atoms: _484  and  _485
REMARK  196  A    between atoms: _484  and  _487
REMARK  197  A    between atoms: _487  and  _488
REMARK  198  A    between atoms: _491  and  _493
REMARK  199  A    between atoms: _493  and  _494
REMARK  200  A    between atoms: _493  and  _496
REMARK  201  A    between atoms: _496  and  _497
REMARK  202  A    between atoms: _500  and  _502
REMARK  203  A    between atoms: _502  and  _503
REMARK  204  A    between atoms: _502  and  _505
REMARK  205  A    between atoms: _505  and  _506
REMARK  206  A    between atoms: _511  and  _513
REMARK  207  A    between atoms: _513  and  _514
REMARK  208  A    between atoms: _513  and  _516
REMARK  209  A    between atoms: _516  and  _517
REMARK  210  A    between atoms: _520  and  _522
REMARK  211  A    between atoms: _522  and  _523
REMARK  212  A    between atoms: _522  and  _525
REMARK  213  A    between atoms: _525  and  _526
REMARK  214  A    between atoms: _526  and  _527
REMARK  215  A    between atoms: _527  and  _528
REMARK  216  A    between atoms: _537  and  _539
REMARK  217  A    between atoms: _539  and  _540
REMARK  218  A    between atoms: _539  and  _542
REMARK  219  A    between atoms: _542  and  _543
REMARK  220  A    between atoms: _546  and  _548
REMARK  221  A    between atoms: _548  and  _549
REMARK  222  A    between atoms: _551  and  _553
REMARK  223  A    between atoms: _553  and  _554
REMARK  224  A    between atoms: _553  and  _556
REMARK  225  A    between atoms: _556  and  _557
REMARK  226  A    between atoms: _557  and  _558
REMARK  227  A    between atoms: _561  and  _563
REMARK  228  A    between atoms: _563  and  _564
REMARK  229  A    between atoms: _563  and  _566
REMARK  230  A    between atoms: _566  and  _567
REMARK  231  A    between atoms: _567  and  _568
REMARK  232  A    between atoms: _568  and  _569
REMARK  233  A    between atoms: _578  and  _580
REMARK  234  A    between atoms: _580  and  _581
REMARK  235  A    between atoms: _580  and  _583
REMARK  236  A    between atoms: _583  and  _584
REMARK  237  A    between atoms: _584  and  _585
REMARK  238  A    between atoms: _585  and  _586
REMARK  239  A    between atoms: _586  and  _587
REMARK  240  A    between atoms: _591  and  _593
REMARK  241  A    between atoms: _593  and  _594
REMARK  242  A    between atoms: _593  and  _596
REMARK  243  A    between atoms: _596  and  _597
REMARK  244  A    between atoms: _603  and  _605
REMARK  245  A    between atoms: _605  and  _606
REMARK  246  A    between atoms: _609  and  _611
REMARK  247  A    between atoms: _611  and  _612
REMARK  248  A    between atoms: _611  and  _614
REMARK  249  A    between atoms: _614  and  _615
REMARK  250  A    between atoms: _618  and  _620
REMARK  251  A    between atoms: _620  and  _621
REMARK  252  A    between atoms: _620  and  _623
REMARK  253  A    between atoms: _623  and  _624
REMARK  254  A    between atoms: _626  and  _628
REMARK  255  A    between atoms: _628  and  _629
REMARK  256  A    between atoms: _628  and  _631
REMARK  257  A    between atoms: _631  and  _632
REMARK  258  A    between atoms: _632  and  _633
REMARK  259  A    between atoms: _638  and  _640
REMARK  260  A    between atoms: _640  and  _641
REMARK  261  A    between atoms: _640  and  _643
REMARK  262  A    between atoms: _643  and  _644
REMARK  263  A    between atoms: _646  and  _648
REMARK  264  A    between atoms: _648  and  _649
REMARK  265  A    between atoms: _648  and  _651
REMARK  266  A    between atoms: _651  and  _652
REMARK  267  A    between atoms: _654  and  _656
REMARK  268  A    between atoms: _656  and  _657
REMARK  269  A    between atoms: _656  and  _659
REMARK  270  A    between atoms: _659  and  _660
REMARK  271  A    between atoms: _663  and  _665
REMARK  272  A    between atoms: _665  and  _666
REMARK  273  A    between atoms: _668  and  _670
REMARK  274  A    between atoms: _670  and  _671
REMARK  275  A    between atoms: _670  and  _673
REMARK  276  A    between atoms: _673  and  _674
REMARK  277  A    between atoms: _677  and  _679
REMARK  278  A    between atoms: _679  and  _680
REMARK  279  A    between atoms: _679  and  _682
REMARK  280  A    between atoms: _685  and  _687
REMARK  281  A    between atoms: _687  and  _688
REMARK  282  A    between atoms: _690  and  _692
REMARK  283  A    between atoms: _692  and  _693
REMARK  284  A    between atoms: _696  and  _698
REMARK  285  A    between atoms: _698  and  _699
REMARK  286  A    between atoms: _698  and  _701
REMARK                            x       y       z     vdW  Elec       q    Type
REMARK                         _______ _______ _______ _____ _____    ______ ____
ROOT
ATOM      1  O   HOH     1      19.661  -6.910  -0.015  0.00  0.00    +0.000 OA
ENDROOT
TORSDOF 0
REMARK  Name = ../refined-set-2016/1fkn/1fkn_pocket.pdb
REMARK  286 active torsions:
REMARK  status: ('A' for Active; 'I' for Inactive)
REMARK    1  A    between atoms: _1  and  _3
REMARK    2  A    between atoms: _3  and  _4
REMARK    3  A    between atoms: _3  and  _6
REMARK    4  A    between atoms: _6  and  _7
REMARK    5  A    between atoms: _7  and  _8
REMARK    6  A    between atoms: _8  and  _9
REMARK    7  A    between atoms: _9  and  _10
REMARK    8  A    between atoms: _14  and  _16
REMARK    9  A    between atoms: _16  and  _17
REMARK   10  A    between atoms: _16  and  _19
REMARK   11  A    between atoms: _19  and  _20
REMARK   12  A    between atoms: _22  and  _24
REMARK   13  A    between atoms: _24  and  _25
REMARK   14  A    between atoms: _27  and  _29
REMARK   15  A    between atoms: _29  and  _30
REMARK   16  A    between atoms: _29  and  _32
REMARK   17  A    between atoms: _32  and  _33
REMARK   18  A    between atoms: _33  and  _34
REMARK   19  A    between atoms: _39  and  _41
REMARK   20  A    between atoms: _41  and  _42
REMARK   21  A    between atoms: _44  and  _46
REMARK   22  A    between atoms: _46  and  _47
REMARK   23  A    between atoms: _46  and  _49
REMARK   24  A    between atoms: _49  and  _50
REMARK   25  A    between atoms: _55  and  _56
REMARK   26  A    between atoms: _58  and  _60
REMARK   27  A    between atoms: _60  and  _61
REMARK   28  A    between atoms: _60  and  _63
REMARK   29  A    between atoms: _63  and  _64
REMARK   30  A    between atoms: _67  and  _69
REMARK   31  A    between atoms: _69  and  _70
REMARK   32  A    between atoms: _69  and  _72
REMARK   33  A    between atoms: _75  and  _77
REMARK   34  A    between atoms: _77  and  _78
REMARK   35  A    between atoms: _77  and  _80
REMARK   36  A    between atoms: _80  and  _81
REMARK   37  A    between atoms: _84  and  _86
REMARK   38  A    between atoms: _86  and  _87
REMARK   39  A    between atoms: _86  and  _89
REMARK   40  A    between atoms: _89  and  _90
REMARK   41  A    between atoms: _93  and  _95
REMARK   42  A    between atoms: _95  and  _96
REMARK   43  A    between atoms: _98  and  _100
REMARK   44  A    between atoms: _100  and  _101
REMARK   45  A    between atoms: _100  and  _103
REMARK   46  A    between atoms: _103  and  _104
REMARK   47  A    between atoms: _106  and  _108
REMARK   48  A    between atoms: _108  and  _109
REMARK   49  A    between atoms: _108  and  _111
REMARK   50  A    between atoms: _111  and  _112
REMARK   51  A    between atoms: _114  and  _116
REMARK   52  A    between atoms: _116  and  _117
REMARK   53  A    between atoms: _116  and  _119
REMARK   54  A    between atoms: _119  and  _120
REMARK   55  A    between atoms: _125  and  _127
REMARK   56  A    between atoms: _127  and  _128
REMARK   57  A    between atoms: _127  and  _130
REMARK   58  A    between atoms: _130  and  _131
REMARK   59  A    between atoms: _136  and  _137
REMARK   60  A    between atoms: _139  and  _141
REMARK   61  A    between atoms: _141  and  _142
REMARK   62  A    between atoms: _141  and  _144
REMARK   63  A    between atoms: _148  and  _149
REMARK   64  A    between atoms: _154  and  _156
REMARK   65  A    between atoms: _156  and  _157
REMARK   66  A    between atoms: _156  and  _159
REMARK   67  A    between atoms: _159  and  _160
REMARK   68  A    between atoms: _165  and  _166
REMARK   69  A    between atoms: _168  and  _170
REMARK   70  A    between atoms: _170  and  _171
REMARK   71  A    between atoms: _170  and  _173
REMARK   72  A    between atoms: _173  and  _174
REMARK   73  A    between atoms: _177  and  _179
REMARK   74  A    between atoms: _179  and  _180
REMARK   75  A    between atoms: _179  and  _182
REMARK   76  A    between atoms: _182  and  _183
REMARK   77  A    between atoms: _183  and  _184
REMARK   78  A    between atoms: _189  and  _191
REMARK   79  A    between atoms: _191  and  _192
REMARK   80  A    between atoms: _194  and  _196
REMARK   81  A    between atoms: _196  and  _197
REMARK   82  A    between atoms: _196  and  _199
REMARK   83  A    between atoms: _199  and  _200
REMARK   84  A    between atoms: _200  and  _201
REMARK   85  A    between atoms: _201  and  _202
REMARK   86  A    between atoms: _202  and  _203
REMARK   87  A    between atoms: _207  and  _209
REMARK   88  A    between atoms: _209  and  _210
REMARK   89  A    between atoms: _209  and  _212
REMARK   90  A    between atoms: _212  and  _213
REMARK   91  A    between atoms: _223  and  _225
REMARK   92  A    between atoms: _225  and  _226
REMARK   93  A    between atoms: _225  and  _228
REMARK   94  A    between atoms: _228  and  _229
REMARK   95  A    between atoms: _232  and  _234
REMARK   96  A    between atoms: _234  and  _235
REMARK   97  A    between atoms: _234  and  _237
REMARK   98  A    between atoms: _237  and  _238
REMARK   99  A    between atoms: _238  and  _239
REMARK  100  A    between atoms: _239  and  _240
REMARK  101  A    between atoms: _240  and  _241
REMARK  102  A    between atoms: _245  and  _247
REMARK  103  A    between atoms: _247  and  _248
REMARK  104  A    between atoms: _247  and  _250
REMARK  105  A    between atoms: _250  and  _251
REMARK  106  A    between atoms: _257  and  _259
REMARK  107  A    between atoms: _259  and  _260
REMARK  108  A    between atoms: _259  and  _262
REMARK  109  A    between atoms: _262  and  _263
REMARK  110  A    between atoms: _269  and  _271
REMARK  111  A    between atoms: _271  and  _272
REMARK  112  A    between atoms: _271  and  _274
REMARK  113  A    between atoms: _274  and  _275
REMARK  114  A    between atoms: _278  and  _280
REMARK  115  A    between atoms: _280  and  _281
REMARK  116  A    between atoms: _280  and  _283
REMARK  117  A    between atoms: _283  and  _284
REMARK  118  A    between atoms: _286  and  _288
REMARK  119  A    between atoms: _288  and  _289
REMARK  120  A    between atoms: _288  and  _291
REMARK  121  A    between atoms: _291  and  _292
REMARK  122  A    between atoms: _302  and  _304
REMARK  123  A    between atoms: _304  and  _305
REMARK  124  A    between atoms: _307  and  _309
REMARK  125  A    between atoms: _309  and  _310
REMARK  126  A    between atoms: _309  and  _312
REMARK  127  A    between atoms: _312  and  _313
REMARK  128  A    between atoms: _316  and  _318
REMARK  129  A    between atoms: _318  and  _319
REMARK  130  A    between atoms: _318  and  _321
REMARK  131  A    between atoms: _321  and  _322
REMARK  132  A    between atoms: _325  and  _327
REMARK  133  A    between atoms: _327  and  _328
REMARK  134  A    between atoms: _330  and  _332
REMARK  135  A    between atoms: _332  and  _333
REMARK  136  A    between atoms: _332  and  _335
REMARK  137  A    between atoms: _335  and  _336
REMARK  138  A    between atoms: _339  and  _341
REMARK  139  A    between atoms: _341  and  _342
REMARK  140  A    between atoms: _345  and  _347
REMARK  141  A    between atoms: _347  and  _348
REMARK  142  A    between atoms: _347  and  _350
REMARK  143  A    between atoms: _350  and  _351
REMARK  144  A    between atoms: _356  and  _357
REMARK  145  A    between atoms: _359  and  _361
REMARK  146  A    between atoms: _361  and  _362
REMARK  147  A    between atoms: _361  and  _364
REMARK  148  A    between atoms: _364  and  _365
REMARK  149  A    between atoms: _368  and  _370
REMARK  150  A    between atoms: _370  and  _371
REMARK  151  A    between atoms: _374  and  _376
REMARK  152  A    between atoms: _376  and  _377
REMARK  153  A    between atoms: _376  and  _379
REMARK  154  A    between atoms: _379  and  _380
REMARK  155  A    between atoms: _380  and  _381
REMARK  156  A    between atoms: _381  and  _382
REMARK  157  A    between atoms: _391  and  _393
REMARK  158  A    between atoms: _393  and  _394
REMARK  159  A    between atoms: _393  and  _396
REMARK  160  A    between atoms: _396  and  _397
REMARK  161  A    between atoms: _407  and  _409
REMARK  162  A    between atoms: _409  and  _410
REMARK  163  A    between atoms: _409  and  _412
REMARK  164  A    between atoms: _412  and  _413
REMARK  165  A    between atoms: _418  and  _419
REMARK  166  A    between atoms: _421  and  _423
REMARK  167  A    between atoms: _423  and  _424
REMARK  168  A    between atoms: _423  and  _426
REMARK  169  A    between atoms: _426  and  _427
REMARK  170  A    between atoms: _430  and  _432
REMARK  171  A    between atoms: _432  and  _433
REMARK  172  A    between atoms: _432  and  _435
REMARK  173  A    between atoms: _435  and  _436
REMARK  174  A    between atoms: _436  and  _437
REMARK  175  A    between atoms: _437  and  _438
REMARK  176  A    between atoms: _438  and  _439
REMARK  177  A    between atoms: _443  and  _445
REMARK  178  A    between atoms: _445  and  _446
REMARK  179  A    between atoms: _445  and  _448
REMARK  180  A    between atoms: _448  and  _449
REMARK  181  A    between atoms: _452  and  _454
REMARK  182  A    between atoms: _454  and  _455
REMARK  183  A    between atoms: _454  and  _457
REMARK  184  A    between atoms: _460  and  _462
REMARK  185  A    between atoms: _462  and  _463
REMARK  186  A    between atoms: _462  and  _465
REMARK  187  A    between atoms: _465  and  _466
REMARK  188  A    between atoms: _469  and  _471
REMARK  189  A    between atoms: _471  and  _472
REMARK  190  A    between atoms: _471  and  _474
REMARK  191  A    between atoms: _474  and  _475
REMARK  192  A    between atoms: _477  and  _479
REMARK  193  A    between atoms: _479  and  _480
REMARK  194  A    between atoms: _482  and  _484
REMARK  195  A    between atoms: _484  and  _485
REMARK  196  A    between atoms: _484  and  _487
REMARK  197  A    between atoms: _487  and  _488
REMARK  198  A    between atoms: _491  and  _493
REMARK  199  A    between atoms: _493  and  _494
REMARK  200  A    between atoms: _493  and  _496
REMARK  201  A    between atoms: _496  and  _497
REMARK  202  A    between atoms: _500  and  _502
REMARK  203  A    between atoms: _502  and  _503
REMARK  204  A    between atoms: _502  and  _505
REMARK  205  A    between atoms: _505  and  _506
REMARK  206  A    between atoms: _511  and  _513
REMARK  207  A    between atoms: _513  and  _514
REMARK  208  A    between atoms: _513  and  _516
REMARK  209  A    between atoms: _516  and  _517
REMARK  210  A    between atoms: _520  and  _522
REMARK  211  A    between atoms: _522  and  _523
REMARK  212  A    between atoms: _522  and  _525
REMARK  213  A    between atoms: _525  and  _526
REMARK  214  A    between atoms: _526  and  _527
REMARK  215  A    between atoms: _527  and  _528
REMARK  216  A    between atoms: _537  and  _539
REMARK  217  A    between atoms: _539  and  _540
REMARK  218  A    between atoms: _539  and  _542
REMARK  219  A    between atoms: _542  and  _543
REMARK  220  A    between atoms: _546  and  _548
REMARK  221  A    between atoms: _548  and  _549
REMARK  222  A    between atoms: _551  and  _553
REMARK  223  A    between atoms: _553  and  _554
REMARK  224  A    between atoms: _553  and  _556
REMARK  225  A    between atoms: _556  and  _557
REMARK  226  A    between atoms: _557  and  _558
REMARK  227  A    between atoms: _561  and  _563
REMARK  228  A    between atoms: _563  and  _564
REMARK  229  A    between atoms: _563  and  _566
REMARK  230  A    between atoms: _566  and  _567
REMARK  231  A    between atoms: _567  and  _568
REMARK  232  A    between atoms: _568  and  _569
REMARK  233  A    between atoms: _578  and  _580
REMARK  234  A    between atoms: _580  and  _581
REMARK  235  A    between atoms: _580  and  _583
REMARK  236  A    between atoms: _583  and  _584
REMARK  237  A    between atoms: _584  and  _585
REMARK  238  A    between atoms: _585  and  _586
REMARK  239  A    between atoms: _586  and  _587
REMARK  240  A    between atoms: _591  and  _593
REMARK  241  A    between atoms: _593  and  _594
REMARK  242  A    between atoms: _593  and  _596
REMARK  243  A    between atoms: _596  and  _597
REMARK  244  A    between atoms: _603  and  _605
REMARK  245  A    between atoms: _605  and  _606
REMARK  246  A    between atoms: _609  and  _611
REMARK  247  A    between atoms: _611  and  _612
REMARK  248  A    between atoms: _611  and  _614
REMARK  249  A    between atoms: _614  and  _615
REMARK  250  A    between atoms: _618  and  _620
REMARK  251  A    between atoms: _620  and  _621
REMARK  252  A    between atoms: _620  and  _623
REMARK  253  A    between atoms: _623  and  _624
REMARK  254  A    between atoms: _626  and  _628
REMARK  255  A    between atoms: _628  and  _629
REMARK  256  A    between atoms: _628  and  _631
REMARK  257  A    between atoms: _631  and  _632
REMARK  258  A    between atoms: _632  and  _633
REMARK  259  A    between atoms: _638  and  _640
REMARK  260  A    between atoms: _640  and  _641
REMARK  261  A    between atoms: _640  and  _643
REMARK  262  A    between atoms: _643  and  _644
REMARK  263  A    between atoms: _646  and  _648
REMARK  264  A    between atoms: _648  and  _649
REMARK  265  A    between atoms: _648  and  _651
REMARK  266  A    between atoms: _651  and  _652
REMARK  267  A    between atoms: _654  and  _656
REMARK  268  A    between atoms: _656  and  _657
REMARK  269  A    between atoms: _656  and  _659
REMARK  270  A    between atoms: _659  and  _660
REMARK  271  A    between atoms: _663  and  _665
REMARK  272  A    between atoms: _665  and  _666
REMARK  273  A    between atoms: _668  and  _670
REMARK  274  A    between atoms: _670  and  _671
REMARK  275  A    between atoms: _670  and  _673
REMARK  276  A    between atoms: _673  and  _674
REMARK  277  A    between atoms: _677  and  _679
REMARK  278  A    between atoms: _679  and  _680
REMARK  279  A    between atoms: _679  and  _682
REMARK  280  A    between atoms: _685  and  _687
REMARK  281  A    between atoms: _687  and  _688
REMARK  282  A    between atoms: _690  and  _692
REMARK  283  A    between atoms: _692  and  _693
REMARK  284  A    between atoms: _696  and  _698
REMARK  285  A    between atoms: _698  and  _699
REMARK  286  A    between atoms: _698  and  _701
REMARK                            x       y       z     vdW  Elec       q    Type
REMARK                         _______ _______ _______ _____ _____    ______ ____
ROOT
ATOM      1  O   HOH     1      14.253  -4.710   9.417  0.00  0.00    +0.000 OA
ENDROOT
TORSDOF 0
REMARK  Name = ../refined-set-2016/1fkn/1fkn_pocket.pdb
REMARK  286 active torsions:
REMARK  status: ('A' for Active; 'I' for Inactive)
REMARK    1  A    between atoms: _1  and  _3
REMARK    2  A    between atoms: _3  and  _4
REMARK    3  A    between atoms: _3  and  _6
REMARK    4  A    between atoms: _6  and  _7
REMARK    5  A    between atoms: _7  and  _8
REMARK    6  A    between atoms: _8  and  _9
REMARK    7  A    between atoms: _9  and  _10
REMARK    8  A    between atoms: _14  and  _16
REMARK    9  A    between atoms: _16  and  _17
REMARK   10  A    between atoms: _16  and  _19
REMARK   11  A    between atoms: _19  and  _20
REMARK   12  A    between atoms: _22  and  _24
REMARK   13  A    between atoms: _24  and  _25
REMARK   14  A    between atoms: _27  and  _29
REMARK   15  A    between atoms: _29  and  _30
REMARK   16  A    between atoms: _29  and  _32
REMARK   17  A    between atoms: _32  and  _33
REMARK   18  A    between atoms: _33  and  _34
REMARK   19  A    between atoms: _39  and  _41
REMARK   20  A    between atoms: _41  and  _42
REMARK   21  A    between atoms: _44  and  _46
REMARK   22  A    between atoms: _46  and  _47
REMARK   23  A    between atoms: _46  and  _49
REMARK   24  A    between atoms: _49  and  _50
REMARK   25  A    between atoms: _55  and  _56
REMARK   26  A    between atoms: _58  and  _60
REMARK   27  A    between atoms: _60  and  _61
REMARK   28  A    between atoms: _60  and  _63
REMARK   29  A    between atoms: _63  and  _64
REMARK   30  A    between atoms: _67  and  _69
REMARK   31  A    between atoms: _69  and  _70
REMARK   32  A    between atoms: _69  and  _72
REMARK   33  A    between atoms: _75  and  _77
REMARK   34  A    between atoms: _77  and  _78
REMARK   35  A    between atoms: _77  and  _80
REMARK   36  A    between atoms: _80  and  _81
REMARK   37  A    between atoms: _84  and  _86
REMARK   38  A    between atoms: _86  and  _87
REMARK   39  A    between atoms: _86  and  _89
REMARK   40  A    between atoms: _89  and  _90
REMARK   41  A    between atoms: _93  and  _95
REMARK   42  A    between atoms: _95  and  _96
REMARK   43  A    between atoms: _98  and  _100
REMARK   44  A    between atoms: _100  and  _101
REMARK   45  A    between atoms: _100  and  _103
REMARK   46  A    between atoms: _103  and  _104
REMARK   47  A    between atoms: _106  and  _108
REMARK   48  A    between atoms: _108  and  _109
REMARK   49  A    between atoms: _108  and  _111
REMARK   50  A    between atoms: _111  and  _112
REMARK   51  A    between atoms: _114  and  _116
REMARK   52  A    between atoms: _116  and  _117
REMARK   53  A    between atoms: _116  and  _119
REMARK   54  A    between atoms: _119  and  _120
REMARK   55  A    between atoms: _125  and  _127
REMARK   56  A    between atoms: _127  and  _128
REMARK   57  A    between atoms: _127  and  _130
REMARK   58  A    between atoms: _130  and  _131
REMARK   59  A    between atoms: _136  and  _137
REMARK   60  A    between atoms: _139  and  _141
REMARK   61  A    between atoms: _141  and  _142
REMARK   62  A    between atoms: _141  and  _144
REMARK   63  A    between atoms: _148  and  _149
REMARK   64  A    between atoms: _154  and  _156
REMARK   65  A    between atoms: _156  and  _157
REMARK   66  A    between atoms: _156  and  _159
REMARK   67  A    between atoms: _159  and  _160
REMARK   68  A    between atoms: _165  and  _166
REMARK   69  A    between atoms: _168  and  _170
REMARK   70  A    between atoms: _170  and  _171
REMARK   71  A    between atoms: _170  and  _173
REMARK   72  A    between atoms: _173  and  _174
REMARK   73  A    between atoms: _177  and  _179
REMARK   74  A    between atoms: _179  and  _180
REMARK   75  A    between atoms: _179  and  _182
REMARK   76  A    between atoms: _182  and  _183
REMARK   77  A    between atoms: _183  and  _184
REMARK   78  A    between atoms: _189  and  _191
REMARK   79  A    between atoms: _191  and  _192
REMARK   80  A    between atoms: _194  and  _196
REMARK   81  A    between atoms: _196  and  _197
REMARK   82  A    between atoms: _196  and  _199
REMARK   83  A    between atoms: _199  and  _200
REMARK   84  A    between atoms: _200  and  _201
REMARK   85  A    between atoms: _201  and  _202
REMARK   86  A    between atoms: _202  and  _203
REMARK   87  A    between atoms: _207  and  _209
REMARK   88  A    between atoms: _209  and  _210
REMARK   89  A    between atoms: _209  and  _212
REMARK   90  A    between atoms: _212  and  _213
REMARK   91  A    between atoms: _223  and  _225
REMARK   92  A    between atoms: _225  and  _226
REMARK   93  A    between atoms: _225  and  _228
REMARK   94  A    between atoms: _228  and  _229
REMARK   95  A    between atoms: _232  and  _234
REMARK   96  A    between atoms: _234  and  _235
REMARK   97  A    between atoms: _234  and  _237
REMARK   98  A    between atoms: _237  and  _238
REMARK   99  A    between atoms: _238  and  _239
REMARK  100  A    between atoms: _239  and  _240
REMARK  101  A    between atoms: _240  and  _241
REMARK  102  A    between atoms: _245  and  _247
REMARK  103  A    between atoms: _247  and  _248
REMARK  104  A    between atoms: _247  and  _250
REMARK  105  A    between atoms: _250  and  _251
REMARK  106  A    between atoms: _257  and  _259
REMARK  107  A    between atoms: _259  and  _260
REMARK  108  A    between atoms: _259  and  _262
REMARK  109  A    between atoms: _262  and  _263
REMARK  110  A    between atoms: _269  and  _271
REMARK  111  A    between atoms: _271  and  _272
REMARK  112  A    between atoms: _271  and  _274
REMARK  113  A    between atoms: _274  and  _275
REMARK  114  A    between atoms: _278  and  _280
REMARK  115  A    between atoms: _280  and  _281
REMARK  116  A    between atoms: _280  and  _283
REMARK  117  A    between atoms: _283  and  _284
REMARK  118  A    between atoms: _286  and  _288
REMARK  119  A    between atoms: _288  and  _289
REMARK  120  A    between atoms: _288  and  _291
REMARK  121  A    between atoms: _291  and  _292
REMARK  122  A    between atoms: _302  and  _304
REMARK  123  A    between atoms: _304  and  _305
REMARK  124  A    between atoms: _307  and  _309
REMARK  125  A    between atoms: _309  and  _310
REMARK  126  A    between atoms: _309  and  _312
REMARK  127  A    between atoms: _312  and  _313
REMARK  128  A    between atoms: _316  and  _318
REMARK  129  A    between atoms: _318  and  _319
REMARK  130  A    between atoms: _318  and  _321
REMARK  131  A    between atoms: _321  and  _322
REMARK  132  A    between atoms: _325  and  _327
REMARK  133  A    between atoms: _327  and  _328
REMARK  134  A    between atoms: _330  and  _332
REMARK  135  A    between atoms: _332  and  _333
REMARK  136  A    between atoms: _332  and  _335
REMARK  137  A    between atoms: _335  and  _336
REMARK  138  A    between atoms: _339  and  _341
REMARK  139  A    between atoms: _341  and  _342
REMARK  140  A    between atoms: _345  and  _347
REMARK  141  A    between atoms: _347  and  _348
REMARK  142  A    between atoms: _347  and  _350
REMARK  143  A    between atoms: _350  and  _351
REMARK  144  A    between atoms: _356  and  _357
REMARK  145  A    between atoms: _359  and  _361
REMARK  146  A    between atoms: _361  and  _362
REMARK  147  A    between atoms: _361  and  _364
REMARK  148  A    between atoms: _364  and  _365
REMARK  149  A    between atoms: _368  and  _370
REMARK  150  A    between atoms: _370  and  _371
REMARK  151  A    between atoms: _374  and  _376
REMARK  152  A    between atoms: _376  and  _377
REMARK  153  A    between atoms: _376  and  _379
REMARK  154  A    between atoms: _379  and  _380
REMARK  155  A    between atoms: _380  and  _381
REMARK  156  A    between atoms: _381  and  _382
REMARK  157  A    between atoms: _391  and  _393
REMARK  158  A    between atoms: _393  and  _394
REMARK  159  A    between atoms: _393  and  _396
REMARK  160  A    between atoms: _396  and  _397
REMARK  161  A    between atoms: _407  and  _409
REMARK  162  A    between atoms: _409  and  _410
REMARK  163  A    between atoms: _409  and  _412
REMARK  164  A    between atoms: _412  and  _413
REMARK  165  A    between atoms: _418  and  _419
REMARK  166  A    between atoms: _421  and  _423
REMARK  167  A    between atoms: _423  and  _424
REMARK  168  A    between atoms: _423  and  _426
REMARK  169  A    between atoms: _426  and  _427
REMARK  170  A    between atoms: _430  and  _432
REMARK  171  A    between atoms: _432  and  _433
REMARK  172  A    between atoms: _432  and  _435
REMARK  173  A    between atoms: _435  and  _436
REMARK  174  A    between atoms: _436  and  _437
REMARK  175  A    between atoms: _437  and  _438
REMARK  176  A    between atoms: _438  and  _439
REMARK  177  A    between atoms: _443  and  _445
REMARK  178  A    between atoms: _445  and  _446
REMARK  179  A    between atoms: _445  and  _448
REMARK  180  A    between atoms: _448  and  _449
REMARK  181  A    between atoms: _452  and  _454
REMARK  182  A    between atoms: _454  and  _455
REMARK  183  A    between atoms: _454  and  _457
REMARK  184  A    between atoms: _460  and  _462
REMARK  185  A    between atoms: _462  and  _463
REMARK  186  A    between atoms: _462  and  _465
REMARK  187  A    between atoms: _465  and  _466
REMARK  188  A    between atoms: _469  and  _471
REMARK  189  A    between atoms: _471  and  _472
REMARK  190  A    between atoms: _471  and  _474
REMARK  191  A    between atoms: _474  and  _475
REMARK  192  A    between atoms: _477  and  _479
REMARK  193  A    between atoms: _479  and  _480
REMARK  194  A    between atoms: _482  and  _484
REMARK  195  A    between atoms: _484  and  _485
REMARK  196  A    between atoms: _484  and  _487
REMARK  197  A    between atoms: _487  and  _488
REMARK  198  A    between atoms: _491  and  _493
REMARK  199  A    between atoms: _493  and  _494
REMARK  200  A    between atoms: _493  and  _496
REMARK  201  A    between atoms: _496  and  _497
REMARK  202  A    between atoms: _500  and  _502
REMARK  203  A    between atoms: _502  and  _503
REMARK  204  A    between atoms: _502  and  _505
REMARK  205  A    between atoms: _505  and  _506
REMARK  206  A    between atoms: _511  and  _513
REMARK  207  A    between atoms: _513  and  _514
REMARK  208  A    between atoms: _513  and  _516
REMARK  209  A    between atoms: _516  and  _517
REMARK  210  A    between atoms: _520  and  _522
REMARK  211  A    between atoms: _522  and  _523
REMARK  212  A    between atoms: _522  and  _525
REMARK  213  A    between atoms: _525  and  _526
REMARK  214  A    between atoms: _526  and  _527
REMARK  215  A    between atoms: _527  and  _528
REMARK  216  A    between atoms: _537  and  _539
REMARK  217  A    between atoms: _539  and  _540
REMARK  218  A    between atoms: _539  and  _542
REMARK  219  A    between atoms: _542  and  _543
REMARK  220  A    between atoms: _546  and  _548
REMARK  221  A    between atoms: _548  and  _549
REMARK  222  A    between atoms: _551  and  _553
REMARK  223  A    between atoms: _553  and  _554
REMARK  224  A    between atoms: _553  and  _556
REMARK  225  A    between atoms: _556  and  _557
REMARK  226  A    between atoms: _557  and  _558
REMARK  227  A    between atoms: _561  and  _563
REMARK  228  A    between atoms: _563  and  _564
REMARK  229  A    between atoms: _563  and  _566
REMARK  230  A    between atoms: _566  and  _567
REMARK  231  A    between atoms: _567  and  _568
REMARK  232  A    between atoms: _568  and  _569
REMARK  233  A    between atoms: _578  and  _580
REMARK  234  A    between atoms: _580  and  _581
REMARK  235  A    between atoms: _580  and  _583
REMARK  236  A    between atoms: _583  and  _584
REMARK  237  A    between atoms: _584  and  _585
REMARK  238  A    between atoms: _585  and  _586
REMARK  239  A    between atoms: _586  and  _587
REMARK  240  A    between atoms: _591  and  _593
REMARK  241  A    between atoms: _593  and  _594
REMARK  242  A    between atoms: _593  and  _596
REMARK  243  A    between atoms: _596  and  _597
REMARK  244  A    between atoms: _603  and  _605
REMARK  245  A    between atoms: _605  and  _606
REMARK  246  A    between atoms: _609  and  _611
REMARK  247  A    between atoms: _611  and  _612
REMARK  248  A    between atoms: _611  and  _614
REMARK  249  A    between atoms: _614  and  _615
REMARK  250  A    between atoms: _618  and  _620
REMARK  251  A    between atoms: _620  and  _621
REMARK  252  A    between atoms: _620  and  _623
REMARK  253  A    between atoms: _623  and  _624
REMARK  254  A    between atoms: _626  and  _628
REMARK  255  A    between atoms: _628  and  _629
REMARK  256  A    between atoms: _628  and  _631
REMARK  257  A    between atoms: _631  and  _632
REMARK  258  A    between atoms: _632  and  _633
REMARK  259  A    between atoms: _638  and  _640
REMARK  260  A    between atoms: _640  and  _641
REMARK  261  A    between atoms: _640  and  _643
REMARK  262  A    between atoms: _643  and  _644
REMARK  263  A    between atoms: _646  and  _648
REMARK  264  A    between atoms: _648  and  _649
REMARK  265  A    between atoms: _648  and  _651
REMARK  266  A    between atoms: _651  and  _652
REMARK  267  A    between atoms: _654  and  _656
REMARK  268  A    between atoms: _656  and  _657
REMARK  269  A    between atoms: _656  and  _659
REMARK  270  A    between atoms: _659  and  _660
REMARK  271  A    between atoms: _663  and  _665
REMARK  272  A    between atoms: _665  and  _666
REMARK  273  A    between atoms: _668  and  _670
REMARK  274  A    between atoms: _670  and  _671
REMARK  275  A    between atoms: _670  and  _673
REMARK  276  A    between atoms: _673  and  _674
REMARK  277  A    between atoms: _677  and  _679
REMARK  278  A    between atoms: _679  and  _680
REMARK  279  A    between atoms: _679  and  _682
REMARK  280  A    between atoms: _685  and  _687
REMARK  281  A    between atoms: _687  and  _688
REMARK  282  A    between atoms: _690  and  _692
REMARK  283  A    between atoms: _692  and  _693
REMARK  284  A    between atoms: _696  and  _698
REMARK  285  A    between atoms: _698  and  _699
REMARK  286  A    between atoms: _698  and  _701
REMARK                            x       y       z     vdW  Elec       q    Type
REMARK                         _______ _______ _______ _____ _____    ______ ____
ROOT
ATOM      1  O   HOH     1       7.529  -3.074   2.854  0.00  0.00    +0.000 OA
ENDROOT
TORSDOF 0
REMARK  Name = ../refined-set-2016/1fkn/1fkn_pocket.pdb
REMARK  286 active torsions:
REMARK  status: ('A' for Active; 'I' for Inactive)
REMARK    1  A    between atoms: _1  and  _3
REMARK    2  A    between atoms: _3  and  _4
REMARK    3  A    between atoms: _3  and  _6
REMARK    4  A    between atoms: _6  and  _7
REMARK    5  A    between atoms: _7  and  _8
REMARK    6  A    between atoms: _8  and  _9
REMARK    7  A    between atoms: _9  and  _10
REMARK    8  A    between atoms: _14  and  _16
REMARK    9  A    between atoms: _16  and  _17
REMARK   10  A    between atoms: _16  and  _19
REMARK   11  A    between atoms: _19  and  _20
REMARK   12  A    between atoms: _22  and  _24
REMARK   13  A    between atoms: _24  and  _25
REMARK   14  A    between atoms: _27  and  _29
REMARK   15  A    between atoms: _29  and  _30
REMARK   16  A    between atoms: _29  and  _32
REMARK   17  A    between atoms: _32  and  _33
REMARK   18  A    between atoms: _33  and  _34
REMARK   19  A    between atoms: _39  and  _41
REMARK   20  A    between atoms: _41  and  _42
REMARK   21  A    between atoms: _44  and  _46
REMARK   22  A    between atoms: _46  and  _47
REMARK   23  A    between atoms: _46  and  _49
REMARK   24  A    between atoms: _49  and  _50
REMARK   25  A    between atoms: _55  and  _56
REMARK   26  A    between atoms: _58  and  _60
REMARK   27  A    between atoms: _60  and  _61
REMARK   28  A    between atoms: _60  and  _63
REMARK   29  A    between atoms: _63  and  _64
REMARK   30  A    between atoms: _67  and  _69
REMARK   31  A    between atoms: _69  and  _70
REMARK   32  A    between atoms: _69  and  _72
REMARK   33  A    between atoms: _75  and  _77
REMARK   34  A    between atoms: _77  and  _78
REMARK   35  A    between atoms: _77  and  _80
REMARK   36  A    between atoms: _80  and  _81
REMARK   37  A    between atoms: _84  and  _86
REMARK   38  A    between atoms: _86  and  _87
REMARK   39  A    between atoms: _86  and  _89
REMARK   40  A    between atoms: _89  and  _90
REMARK   41  A    between atoms: _93  and  _95
REMARK   42  A    between atoms: _95  and  _96
REMARK   43  A    between atoms: _98  and  _100
REMARK   44  A    between atoms: _100  and  _101
REMARK   45  A    between atoms: _100  and  _103
REMARK   46  A    between atoms: _103  and  _104
REMARK   47  A    between atoms: _106  and  _108
REMARK   48  A    between atoms: _108  and  _109
REMARK   49  A    between atoms: _108  and  _111
REMARK   50  A    between atoms: _111  and  _112
REMARK   51  A    between atoms: _114  and  _116
REMARK   52  A    between atoms: _116  and  _117
REMARK   53  A    between atoms: _116  and  _119
REMARK   54  A    between atoms: _119  and  _120
REMARK   55  A    between atoms: _125  and  _127
REMARK   56  A    between atoms: _127  and  _128
REMARK   57  A    between atoms: _127  and  _130
REMARK   58  A    between atoms: _130  and  _131
REMARK   59  A    between atoms: _136  and  _137
REMARK   60  A    between atoms: _139  and  _141
REMARK   61  A    between atoms: _141  and  _142
REMARK   62  A    between atoms: _141  and  _144
REMARK   63  A    between atoms: _148  and  _149
REMARK   64  A    between atoms: _154  and  _156
REMARK   65  A    between atoms: _156  and  _157
REMARK   66  A    between atoms: _156  and  _159
REMARK   67  A    between atoms: _159  and  _160
REMARK   68  A    between atoms: _165  and  _166
REMARK   69  A    between atoms: _168  and  _170
REMARK   70  A    between atoms: _170  and  _171
REMARK   71  A    between atoms: _170  and  _173
REMARK   72  A    between atoms: _173  and  _174
REMARK   73  A    between atoms: _177  and  _179
REMARK   74  A    between atoms: _179  and  _180
REMARK   75  A    between atoms: _179  and  _182
REMARK   76  A    between atoms: _182  and  _183
REMARK   77  A    between atoms: _183  and  _184
REMARK   78  A    between atoms: _189  and  _191
REMARK   79  A    between atoms: _191  and  _192
REMARK   80  A    between atoms: _194  and  _196
REMARK   81  A    between atoms: _196  and  _197
REMARK   82  A    between atoms: _196  and  _199
REMARK   83  A    between atoms: _199  and  _200
REMARK   84  A    between atoms: _200  and  _201
REMARK   85  A    between atoms: _201  and  _202
REMARK   86  A    between atoms: _202  and  _203
REMARK   87  A    between atoms: _207  and  _209
REMARK   88  A    between atoms: _209  and  _210
REMARK   89  A    between atoms: _209  and  _212
REMARK   90  A    between atoms: _212  and  _213
REMARK   91  A    between atoms: _223  and  _225
REMARK   92  A    between atoms: _225  and  _226
REMARK   93  A    between atoms: _225  and  _228
REMARK   94  A    between atoms: _228  and  _229
REMARK   95  A    between atoms: _232  and  _234
REMARK   96  A    between atoms: _234  and  _235
REMARK   97  A    between atoms: _234  and  _237
REMARK   98  A    between atoms: _237  and  _238
REMARK   99  A    between atoms: _238  and  _239
REMARK  100  A    between atoms: _239  and  _240
REMARK  101  A    between atoms: _240  and  _241
REMARK  102  A    between atoms: _245  and  _247
REMARK  103  A    between atoms: _247  and  _248
REMARK  104  A    between atoms: _247  and  _250
REMARK  105  A    between atoms: _250  and  _251
REMARK  106  A    between atoms: _257  and  _259
REMARK  107  A    between atoms: _259  and  _260
REMARK  108  A    between atoms: _259  and  _262
REMARK  109  A    between atoms: _262  and  _263
REMARK  110  A    between atoms: _269  and  _271
REMARK  111  A    between atoms: _271  and  _272
REMARK  112  A    between atoms: _271  and  _274
REMARK  113  A    between atoms: _274  and  _275
REMARK  114  A    between atoms: _278  and  _280
REMARK  115  A    between atoms: _280  and  _281
REMARK  116  A    between atoms: _280  and  _283
REMARK  117  A    between atoms: _283  and  _284
REMARK  118  A    between atoms: _286  and  _288
REMARK  119  A    between atoms: _288  and  _289
REMARK  120  A    between atoms: _288  and  _291
REMARK  121  A    between atoms: _291  and  _292
REMARK  122  A    between atoms: _302  and  _304
REMARK  123  A    between atoms: _304  and  _305
REMARK  124  A    between atoms: _307  and  _309
REMARK  125  A    between atoms: _309  and  _310
REMARK  126  A    between atoms: _309  and  _312
REMARK  127  A    between atoms: _312  and  _313
REMARK  128  A    between atoms: _316  and  _318
REMARK  129  A    between atoms: _318  and  _319
REMARK  130  A    between atoms: _318  and  _321
REMARK  131  A    between atoms: _321  and  _322
REMARK  132  A    between atoms: _325  and  _327
REMARK  133  A    between atoms: _327  and  _328
REMARK  134  A    between atoms: _330  and  _332
REMARK  135  A    between atoms: _332  and  _333
REMARK  136  A    between atoms: _332  and  _335
REMARK  137  A    between atoms: _335  and  _336
REMARK  138  A    between atoms: _339  and  _341
REMARK  139  A    between atoms: _341  and  _342
REMARK  140  A    between atoms: _345  and  _347
REMARK  141  A    between atoms: _347  and  _348
REMARK  142  A    between atoms: _347  and  _350
REMARK  143  A    between atoms: _350  and  _351
REMARK  144  A    between atoms: _356  and  _357
REMARK  145  A    between atoms: _359  and  _361
REMARK  146  A    between atoms: _361  and  _362
REMARK  147  A    between atoms: _361  and  _364
REMARK  148  A    between atoms: _364  and  _365
REMARK  149  A    between atoms: _368  and  _370
REMARK  150  A    between atoms: _370  and  _371
REMARK  151  A    between atoms: _374  and  _376
REMARK  152  A    between atoms: _376  and  _377
REMARK  153  A    between atoms: _376  and  _379
REMARK  154  A    between atoms: _379  and  _380
REMARK  155  A    between atoms: _380  and  _381
REMARK  156  A    between atoms: _381  and  _382
REMARK  157  A    between atoms: _391  and  _393
REMARK  158  A    between atoms: _393  and  _394
REMARK  159  A    between atoms: _393  and  _396
REMARK  160  A    between atoms: _396  and  _397
REMARK  161  A    between atoms: _407  and  _409
REMARK  162  A    between atoms: _409  and  _410
REMARK  163  A    between atoms: _409  and  _412
REMARK  164  A    between atoms: _412  and  _413
REMARK  165  A    between atoms: _418  and  _419
REMARK  166  A    between atoms: _421  and  _423
REMARK  167  A    between atoms: _423  and  _424
REMARK  168  A    between atoms: _423  and  _426
REMARK  169  A    between atoms: _426  and  _427
REMARK  170  A    between atoms: _430  and  _432
REMARK  171  A    between atoms: _432  and  _433
REMARK  172  A    between atoms: _432  and  _435
REMARK  173  A    between atoms: _435  and  _436
REMARK  174  A    between atoms: _436  and  _437
REMARK  175  A    between atoms: _437  and  _438
REMARK  176  A    between atoms: _438  and  _439
REMARK  177  A    between atoms: _443  and  _445
REMARK  178  A    between atoms: _445  and  _446
REMARK  179  A    between atoms: _445  and  _448
REMARK  180  A    between atoms: _448  and  _449
REMARK  181  A    between atoms: _452  and  _454
REMARK  182  A    between atoms: _454  and  _455
REMARK  183  A    between atoms: _454  and  _457
REMARK  184  A    between atoms: _460  and  _462
REMARK  185  A    between atoms: _462  and  _463
REMARK  186  A    between atoms: _462  and  _465
REMARK  187  A    between atoms: _465  and  _466
REMARK  188  A    between atoms: _469  and  _471
REMARK  189  A    between atoms: _471  and  _472
REMARK  190  A    between atoms: _471  and  _474
REMARK  191  A    between atoms: _474  and  _475
REMARK  192  A    between atoms: _477  and  _479
REMARK  193  A    between atoms: _479  and  _480
REMARK  194  A    between atoms: _482  and  _484
REMARK  195  A    between atoms: _484  and  _485
REMARK  196  A    between atoms: _484  and  _487
REMARK  197  A    between atoms: _487  and  _488
REMARK  198  A    between atoms: _491  and  _493
REMARK  199  A    between atoms: _493  and  _494
REMARK  200  A    between atoms: _493  and  _496
REMARK  201  A    between atoms: _496  and  _497
REMARK  202  A    between atoms: _500  and  _502
REMARK  203  A    between atoms: _502  and  _503
REMARK  204  A    between atoms: _502  and  _505
REMARK  205  A    between atoms: _505  and  _506
REMARK  206  A    between atoms: _511  and  _513
REMARK  207  A    between atoms: _513  and  _514
REMARK  208  A    between atoms: _513  and  _516
REMARK  209  A    between atoms: _516  and  _517
REMARK  210  A    between atoms: _520  and  _522
REMARK  211  A    between atoms: _522  and  _523
REMARK  212  A    between atoms: _522  and  _525
REMARK  213  A    between atoms: _525  and  _526
REMARK  214  A    between atoms: _526  and  _527
REMARK  215  A    between atoms: _527  and  _528
REMARK  216  A    between atoms: _537  and  _539
REMARK  217  A    between atoms: _539  and  _540
REMARK  218  A    between atoms: _539  and  _542
REMARK  219  A    between atoms: _542  and  _543
REMARK  220  A    between atoms: _546  and  _548
REMARK  221  A    between atoms: _548  and  _549
REMARK  222  A    between atoms: _551  and  _553
REMARK  223  A    between atoms: _553  and  _554
REMARK  224  A    between atoms: _553  and  _556
REMARK  225  A    between atoms: _556  and  _557
REMARK  226  A    between atoms: _557  and  _558
REMARK  227  A    between atoms: _561  and  _563
REMARK  228  A    between atoms: _563  and  _564
REMARK  229  A    between atoms: _563  and  _566
REMARK  230  A    between atoms: _566  and  _567
REMARK  231  A    between atoms: _567  and  _568
REMARK  232  A    between atoms: _568  and  _569
REMARK  233  A    between atoms: _578  and  _580
REMARK  234  A    between atoms: _580  and  _581
REMARK  235  A    between atoms: _580  and  _583
REMARK  236  A    between atoms: _583  and  _584
REMARK  237  A    between atoms: _584  and  _585
REMARK  238  A    between atoms: _585  and  _586
REMARK  239  A    between atoms: _586  and  _587
REMARK  240  A    between atoms: _591  and  _593
REMARK  241  A    between atoms: _593  and  _594
REMARK  242  A    between atoms: _593  and  _596
REMARK  243  A    between atoms: _596  and  _597
REMARK  244  A    between atoms: _603  and  _605
REMARK  245  A    between atoms: _605  and  _606
REMARK  246  A    between atoms: _609  and  _611
REMARK  247  A    between atoms: _611  and  _612
REMARK  248  A    between atoms: _611  and  _614
REMARK  249  A    between atoms: _614  and  _615
REMARK  250  A    between atoms: _618  and  _620
REMARK  251  A    between atoms: _620  and  _621
REMARK  252  A    between atoms: _620  and  _623
REMARK  253  A    between atoms: _623  and  _624
REMARK  254  A    between atoms: _626  and  _628
REMARK  255  A    between atoms: _628  and  _629
REMARK  256  A    between atoms: _628  and  _631
REMARK  257  A    between atoms: _631  and  _632
REMARK  258  A    between atoms: _632  and  _633
REMARK  259  A    between atoms: _638  and  _640
REMARK  260  A    between atoms: _640  and  _641
REMARK  261  A    between atoms: _640  and  _643
REMARK  262  A    between atoms: _643  and  _644
REMARK  263  A    between atoms: _646  and  _648
REMARK  264  A    between atoms: _648  and  _649
REMARK  265  A    between atoms: _648  and  _651
REMARK  266  A    between atoms: _651  and  _652
REMARK  267  A    between atoms: _654  and  _656
REMARK  268  A    between atoms: _656  and  _657
REMARK  269  A    between atoms: _656  and  _659
REMARK  270  A    between atoms: _659  and  _660
REMARK  271  A    between atoms: _663  and  _665
REMARK  272  A    between atoms: _665  and  _666
REMARK  273  A    between atoms: _668  and  _670
REMARK  274  A    between atoms: _670  and  _671
REMARK  275  A    between atoms: _670  and  _673
REMARK  276  A    between atoms: _673  and  _674
REMARK  277  A    between atoms: _677  and  _679
REMARK  278  A    between atoms: _679  and  _680
REMARK  279  A    between atoms: _679  and  _682
REMARK  280  A    between atoms: _685  and  _687
REMARK  281  A    between atoms: _687  and  _688
REMARK  282  A    between atoms: _690  and  _692
REMARK  283  A    between atoms: _692  and  _693
REMARK  284  A    between atoms: _696  and  _698
REMARK  285  A    between atoms: _698  and  _699
REMARK  286  A    between atoms: _698  and  _701
REMARK                            x       y       z     vdW  Elec       q    Type
REMARK                         _______ _______ _______ _____ _____    ______ ____
ROOT
ATOM      1  O   HOH     1      13.544  12.546  -0.727  0.00  0.00    +0.000 OA
ENDROOT
TORSDOF 0
REMARK  Name = ../refined-set-2016/1fkn/1fkn_pocket.pdb
REMARK  286 active torsions:
REMARK  status: ('A' for Active; 'I' for Inactive)
REMARK    1  A    between atoms: _1  and  _3
REMARK    2  A    between atoms: _3  and  _4
REMARK    3  A    between atoms: _3  and  _6
REMARK    4  A    between atoms: _6  and  _7
REMARK    5  A    between atoms: _7  and  _8
REMARK    6  A    between atoms: _8  and  _9
REMARK    7  A    between atoms: _9  and  _10
REMARK    8  A    between atoms: _14  and  _16
REMARK    9  A    between atoms: _16  and  _17
REMARK   10  A    between atoms: _16  and  _19
REMARK   11  A    between atoms: _19  and  _20
REMARK   12  A    between atoms: _22  and  _24
REMARK   13  A    between atoms: _24  and  _25
REMARK   14  A    between atoms: _27  and  _29
REMARK   15  A    between atoms: _29  and  _30
REMARK   16  A    between atoms: _29  and  _32
REMARK   17  A    between atoms: _32  and  _33
REMARK   18  A    between atoms: _33  and  _34
REMARK   19  A    between atoms: _39  and  _41
REMARK   20  A    between atoms: _41  and  _42
REMARK   21  A    between atoms: _44  and  _46
REMARK   22  A    between atoms: _46  and  _47
REMARK   23  A    between atoms: _46  and  _49
REMARK   24  A    between atoms: _49  and  _50
REMARK   25  A    between atoms: _55  and  _56
REMARK   26  A    between atoms: _58  and  _60
REMARK   27  A    between atoms: _60  and  _61
REMARK   28  A    between atoms: _60  and  _63
REMARK   29  A    between atoms: _63  and  _64
REMARK   30  A    between atoms: _67  and  _69
REMARK   31  A    between atoms: _69  and  _70
REMARK   32  A    between atoms: _69  and  _72
REMARK   33  A    between atoms: _75  and  _77
REMARK   34  A    between atoms: _77  and  _78
REMARK   35  A    between atoms: _77  and  _80
REMARK   36  A    between atoms: _80  and  _81
REMARK   37  A    between atoms: _84  and  _86
REMARK   38  A    between atoms: _86  and  _87
REMARK   39  A    between atoms: _86  and  _89
REMARK   40  A    between atoms: _89  and  _90
REMARK   41  A    between atoms: _93  and  _95
REMARK   42  A    between atoms: _95  and  _96
REMARK   43  A    between atoms: _98  and  _100
REMARK   44  A    between atoms: _100  and  _101
REMARK   45  A    between atoms: _100  and  _103
REMARK   46  A    between atoms: _103  and  _104
REMARK   47  A    between atoms: _106  and  _108
REMARK   48  A    between atoms: _108  and  _109
REMARK   49  A    between atoms: _108  and  _111
REMARK   50  A    between atoms: _111  and  _112
REMARK   51  A    between atoms: _114  and  _116
REMARK   52  A    between atoms: _116  and  _117
REMARK   53  A    between atoms: _116  and  _119
REMARK   54  A    between atoms: _119  and  _120
REMARK   55  A    between atoms: _125  and  _127
REMARK   56  A    between atoms: _127  and  _128
REMARK   57  A    between atoms: _127  and  _130
REMARK   58  A    between atoms: _130  and  _131
REMARK   59  A    between atoms: _136  and  _137
REMARK   60  A    between atoms: _139  and  _141
REMARK   61  A    between atoms: _141  and  _142
REMARK   62  A    between atoms: _141  and  _144
REMARK   63  A    between atoms: _148  and  _149
REMARK   64  A    between atoms: _154  and  _156
REMARK   65  A    between atoms: _156  and  _157
REMARK   66  A    between atoms: _156  and  _159
REMARK   67  A    between atoms: _159  and  _160
REMARK   68  A    between atoms: _165  and  _166
REMARK   69  A    between atoms: _168  and  _170
REMARK   70  A    between atoms: _170  and  _171
REMARK   71  A    between atoms: _170  and  _173
REMARK   72  A    between atoms: _173  and  _174
REMARK   73  A    between atoms: _177  and  _179
REMARK   74  A    between atoms: _179  and  _180
REMARK   75  A    between atoms: _179  and  _182
REMARK   76  A    between atoms: _182  and  _183
REMARK   77  A    between atoms: _183  and  _184
REMARK   78  A    between atoms: _189  and  _191
REMARK   79  A    between atoms: _191  and  _192
REMARK   80  A    between atoms: _194  and  _196
REMARK   81  A    between atoms: _196  and  _197
REMARK   82  A    between atoms: _196  and  _199
REMARK   83  A    between atoms: _199  and  _200
REMARK   84  A    between atoms: _200  and  _201
REMARK   85  A    between atoms: _201  and  _202
REMARK   86  A    between atoms: _202  and  _203
REMARK   87  A    between atoms: _207  and  _209
REMARK   88  A    between atoms: _209  and  _210
REMARK   89  A    between atoms: _209  and  _212
REMARK   90  A    between atoms: _212  and  _213
REMARK   91  A    between atoms: _223  and  _225
REMARK   92  A    between atoms: _225  and  _226
REMARK   93  A    between atoms: _225  and  _228
REMARK   94  A    between atoms: _228  and  _229
REMARK   95  A    between atoms: _232  and  _234
REMARK   96  A    between atoms: _234  and  _235
REMARK   97  A    between atoms: _234  and  _237
REMARK   98  A    between atoms: _237  and  _238
REMARK   99  A    between atoms: _238  and  _239
REMARK  100  A    between atoms: _239  and  _240
REMARK  101  A    between atoms: _240  and  _241
REMARK  102  A    between atoms: _245  and  _247
REMARK  103  A    between atoms: _247  and  _248
REMARK  104  A    between atoms: _247  and  _250
REMARK  105  A    between atoms: _250  and  _251
REMARK  106  A    between atoms: _257  and  _259
REMARK  107  A    between atoms: _259  and  _260
REMARK  108  A    between atoms: _259  and  _262
REMARK  109  A    between atoms: _262  and  _263
REMARK  110  A    between atoms: _269  and  _271
REMARK  111  A    between atoms: _271  and  _272
REMARK  112  A    between atoms: _271  and  _274
REMARK  113  A    between atoms: _274  and  _275
REMARK  114  A    between atoms: _278  and  _280
REMARK  115  A    between atoms: _280  and  _281
REMARK  116  A    between atoms: _280  and  _283
REMARK  117  A    between atoms: _283  and  _284
REMARK  118  A    between atoms: _286  and  _288
REMARK  119  A    between atoms: _288  and  _289
REMARK  120  A    between atoms: _288  and  _291
REMARK  121  A    between atoms: _291  and  _292
REMARK  122  A    between atoms: _302  and  _304
REMARK  123  A    between atoms: _304  and  _305
REMARK  124  A    between atoms: _307  and  _309
REMARK  125  A    between atoms: _309  and  _310
REMARK  126  A    between atoms: _309  and  _312
REMARK  127  A    between atoms: _312  and  _313
REMARK  128  A    between atoms: _316  and  _318
REMARK  129  A    between atoms: _318  and  _319
REMARK  130  A    between atoms: _318  and  _321
REMARK  131  A    between atoms: _321  and  _322
REMARK  132  A    between atoms: _325  and  _327
REMARK  133  A    between atoms: _327  and  _328
REMARK  134  A    between atoms: _330  and  _332
REMARK  135  A    between atoms: _332  and  _333
REMARK  136  A    between atoms: _332  and  _335
REMARK  137  A    between atoms: _335  and  _336
REMARK  138  A    between atoms: _339  and  _341
REMARK  139  A    between atoms: _341  and  _342
REMARK  140  A    between atoms: _345  and  _347
REMARK  141  A    between atoms: _347  and  _348
REMARK  142  A    between atoms: _347  and  _350
REMARK  143  A    between atoms: _350  and  _351
REMARK  144  A    between atoms: _356  and  _357
REMARK  145  A    between atoms: _359  and  _361
REMARK  146  A    between atoms: _361  and  _362
REMARK  147  A    between atoms: _361  and  _364
REMARK  148  A    between atoms: _364  and  _365
REMARK  149  A    between atoms: _368  and  _370
REMARK  150  A    between atoms: _370  and  _371
REMARK  151  A    between atoms: _374  and  _376
REMARK  152  A    between atoms: _376  and  _377
REMARK  153  A    between atoms: _376  and  _379
REMARK  154  A    between atoms: _379  and  _380
REMARK  155  A    between atoms: _380  and  _381
REMARK  156  A    between atoms: _381  and  _382
REMARK  157  A    between atoms: _391  and  _393
REMARK  158  A    between atoms: _393  and  _394
REMARK  159  A    between atoms: _393  and  _396
REMARK  160  A    between atoms: _396  and  _397
REMARK  161  A    between atoms: _407  and  _409
REMARK  162  A    between atoms: _409  and  _410
REMARK  163  A    between atoms: _409  and  _412
REMARK  164  A    between atoms: _412  and  _413
REMARK  165  A    between atoms: _418  and  _419
REMARK  166  A    between atoms: _421  and  _423
REMARK  167  A    between atoms: _423  and  _424
REMARK  168  A    between atoms: _423  and  _426
REMARK  169  A    between atoms: _426  and  _427
REMARK  170  A    between atoms: _430  and  _432
REMARK  171  A    between atoms: _432  and  _433
REMARK  172  A    between atoms: _432  and  _435
REMARK  173  A    between atoms: _435  and  _436
REMARK  174  A    between atoms: _436  and  _437
REMARK  175  A    between atoms: _437  and  _438
REMARK  176  A    between atoms: _438  and  _439
REMARK  177  A    between atoms: _443  and  _445
REMARK  178  A    between atoms: _445  and  _446
REMARK  179  A    between atoms: _445  and  _448
REMARK  180  A    between atoms: _448  and  _449
REMARK  181  A    between atoms: _452  and  _454
REMARK  182  A    between atoms: _454  and  _455
REMARK  183  A    between atoms: _454  and  _457
REMARK  184  A    between atoms: _460  and  _462
REMARK  185  A    between atoms: _462  and  _463
REMARK  186  A    between atoms: _462  and  _465
REMARK  187  A    between atoms: _465  and  _466
REMARK  188  A    between atoms: _469  and  _471
REMARK  189  A    between atoms: _471  and  _472
REMARK  190  A    between atoms: _471  and  _474
REMARK  191  A    between atoms: _474  and  _475
REMARK  192  A    between atoms: _477  and  _479
REMARK  193  A    between atoms: _479  and  _480
REMARK  194  A    between atoms: _482  and  _484
REMARK  195  A    between atoms: _484  and  _485
REMARK  196  A    between atoms: _484  and  _487
REMARK  197  A    between atoms: _487  and  _488
REMARK  198  A    between atoms: _491  and  _493
REMARK  199  A    between atoms: _493  and  _494
REMARK  200  A    between atoms: _493  and  _496
REMARK  201  A    between atoms: _496  and  _497
REMARK  202  A    between atoms: _500  and  _502
REMARK  203  A    between atoms: _502  and  _503
REMARK  204  A    between atoms: _502  and  _505
REMARK  205  A    between atoms: _505  and  _506
REMARK  206  A    between atoms: _511  and  _513
REMARK  207  A    between atoms: _513  and  _514
REMARK  208  A    between atoms: _513  and  _516
REMARK  209  A    between atoms: _516  and  _517
REMARK  210  A    between atoms: _520  and  _522
REMARK  211  A    between atoms: _522  and  _523
REMARK  212  A    between atoms: _522  and  _525
REMARK  213  A    between atoms: _525  and  _526
REMARK  214  A    between atoms: _526  and  _527
REMARK  215  A    between atoms: _527  and  _528
REMARK  216  A    between atoms: _537  and  _539
REMARK  217  A    between atoms: _539  and  _540
REMARK  218  A    between atoms: _539  and  _542
REMARK  219  A    between atoms: _542  and  _543
REMARK  220  A    between atoms: _546  and  _548
REMARK  221  A    between atoms: _548  and  _549
REMARK  222  A    between atoms: _551  and  _553
REMARK  223  A    between atoms: _553  and  _554
REMARK  224  A    between atoms: _553  and  _556
REMARK  225  A    between atoms: _556  and  _557
REMARK  226  A    between atoms: _557  and  _558
REMARK  227  A    between atoms: _561  and  _563
REMARK  228  A    between atoms: _563  and  _564
REMARK  229  A    between atoms: _563  and  _566
REMARK  230  A    between atoms: _566  and  _567
REMARK  231  A    between atoms: _567  and  _568
REMARK  232  A    between atoms: _568  and  _569
REMARK  233  A    between atoms: _578  and  _580
REMARK  234  A    between atoms: _580  and  _581
REMARK  235  A    between atoms: _580  and  _583
REMARK  236  A    between atoms: _583  and  _584
REMARK  237  A    between atoms: _584  and  _585
REMARK  238  A    between atoms: _585  and  _586
REMARK  239  A    between atoms: _586  and  _587
REMARK  240  A    between atoms: _591  and  _593
REMARK  241  A    between atoms: _593  and  _594
REMARK  242  A    between atoms: _593  and  _596
REMARK  243  A    between atoms: _596  and  _597
REMARK  244  A    between atoms: _603  and  _605
REMARK  245  A    between atoms: _605  and  _606
REMARK  246  A    between atoms: _609  and  _611
REMARK  247  A    between atoms: _611  and  _612
REMARK  248  A    between atoms: _611  and  _614
REMARK  249  A    between atoms: _614  and  _615
REMARK  250  A    between atoms: _618  and  _620
REMARK  251  A    between atoms: _620  and  _621
REMARK  252  A    between atoms: _620  and  _623
REMARK  253  A    between atoms: _623  and  _624
REMARK  254  A    between atoms: _626  and  _628
REMARK  255  A    between atoms: _628  and  _629
REMARK  256  A    between atoms: _628  and  _631
REMARK  257  A    between atoms: _631  and  _632
REMARK  258  A    between atoms: _632  and  _633
REMARK  259  A    between atoms: _638  and  _640
REMARK  260  A    between atoms: _640  and  _641
REMARK  261  A    between atoms: _640  and  _643
REMARK  262  A    between atoms: _643  and  _644
REMARK  263  A    between atoms: _646  and  _648
REMARK  264  A    between atoms: _648  and  _649
REMARK  265  A    between atoms: _648  and  _651
REMARK  266  A    between atoms: _651  and  _652
REMARK  267  A    between atoms: _654  and  _656
REMARK  268  A    between atoms: _656  and  _657
REMARK  269  A    between atoms: _656  and  _659
REMARK  270  A    between atoms: _659  and  _660
REMARK  271  A    between atoms: _663  and  _665
REMARK  272  A    between atoms: _665  and  _666
REMARK  273  A    between atoms: _668  and  _670
REMARK  274  A    between atoms: _670  and  _671
REMARK  275  A    between atoms: _670  and  _673
REMARK  276  A    between atoms: _673  and  _674
REMARK  277  A    between atoms: _677  and  _679
REMARK  278  A    between atoms: _679  and  _680
REMARK  279  A    between atoms: _679  and  _682
REMARK  280  A    between atoms: _685  and  _687
REMARK  281  A    between atoms: _687  and  _688
REMARK  282  A    between atoms: _690  and  _692
REMARK  283  A    between atoms: _692  and  _693
REMARK  284  A    between atoms: _696  and  _698
REMARK  285  A    between atoms: _698  and  _699
REMARK  286  A    between atoms: _698  and  _701
REMARK                            x       y       z     vdW  Elec       q    Type
REMARK                         _______ _______ _______ _____ _____    ______ ____
ROOT
ATOM      1  O   HOH     1       6.724  -4.820   7.680  0.00  0.00    +0.000 OA
ENDROOT
TORSDOF 0
REMARK  Name = ../refined-set-2016/1fkn/1fkn_pocket.pdb
REMARK  286 active torsions:
REMARK  status: ('A' for Active; 'I' for Inactive)
REMARK    1  A    between atoms: _1  and  _3
REMARK    2  A    between atoms: _3  and  _4
REMARK    3  A    between atoms: _3  and  _6
REMARK    4  A    between atoms: _6  and  _7
REMARK    5  A    between atoms: _7  and  _8
REMARK    6  A    between atoms: _8  and  _9
REMARK    7  A    between atoms: _9  and  _10
REMARK    8  A    between atoms: _14  and  _16
REMARK    9  A    between atoms: _16  and  _17
REMARK   10  A    between atoms: _16  and  _19
REMARK   11  A    between atoms: _19  and  _20
REMARK   12  A    between atoms: _22  and  _24
REMARK   13  A    between atoms: _24  and  _25
REMARK   14  A    between atoms: _27  and  _29
REMARK   15  A    between atoms: _29  and  _30
REMARK   16  A    between atoms: _29  and  _32
REMARK   17  A    between atoms: _32  and  _33
REMARK   18  A    between atoms: _33  and  _34
REMARK   19  A    between atoms: _39  and  _41
REMARK   20  A    between atoms: _41  and  _42
REMARK   21  A    between atoms: _44  and  _46
REMARK   22  A    between atoms: _46  and  _47
REMARK   23  A    between atoms: _46  and  _49
REMARK   24  A    between atoms: _49  and  _50
REMARK   25  A    between atoms: _55  and  _56
REMARK   26  A    between atoms: _58  and  _60
REMARK   27  A    between atoms: _60  and  _61
REMARK   28  A    between atoms: _60  and  _63
REMARK   29  A    between atoms: _63  and  _64
REMARK   30  A    between atoms: _67  and  _69
REMARK   31  A    between atoms: _69  and  _70
REMARK   32  A    between atoms: _69  and  _72
REMARK   33  A    between atoms: _75  and  _77
REMARK   34  A    between atoms: _77  and  _78
REMARK   35  A    between atoms: _77  and  _80
REMARK   36  A    between atoms: _80  and  _81
REMARK   37  A    between atoms: _84  and  _86
REMARK   38  A    between atoms: _86  and  _87
REMARK   39  A    between atoms: _86  and  _89
REMARK   40  A    between atoms: _89  and  _90
REMARK   41  A    between atoms: _93  and  _95
REMARK   42  A    between atoms: _95  and  _96
REMARK   43  A    between atoms: _98  and  _100
REMARK   44  A    between atoms: _100  and  _101
REMARK   45  A    between atoms: _100  and  _103
REMARK   46  A    between atoms: _103  and  _104
REMARK   47  A    between atoms: _106  and  _108
REMARK   48  A    between atoms: _108  and  _109
REMARK   49  A    between atoms: _108  and  _111
REMARK   50  A    between atoms: _111  and  _112
REMARK   51  A    between atoms: _114  and  _116
REMARK   52  A    between atoms: _116  and  _117
REMARK   53  A    between atoms: _116  and  _119
REMARK   54  A    between atoms: _119  and  _120
REMARK   55  A    between atoms: _125  and  _127
REMARK   56  A    between atoms: _127  and  _128
REMARK   57  A    between atoms: _127  and  _130
REMARK   58  A    between atoms: _130  and  _131
REMARK   59  A    between atoms: _136  and  _137
REMARK   60  A    between atoms: _139  and  _141
REMARK   61  A    between atoms: _141  and  _142
REMARK   62  A    between atoms: _141  and  _144
REMARK   63  A    between atoms: _148  and  _149
REMARK   64  A    between atoms: _154  and  _156
REMARK   65  A    between atoms: _156  and  _157
REMARK   66  A    between atoms: _156  and  _159
REMARK   67  A    between atoms: _159  and  _160
REMARK   68  A    between atoms: _165  and  _166
REMARK   69  A    between atoms: _168  and  _170
REMARK   70  A    between atoms: _170  and  _171
REMARK   71  A    between atoms: _170  and  _173
REMARK   72  A    between atoms: _173  and  _174
REMARK   73  A    between atoms: _177  and  _179
REMARK   74  A    between atoms: _179  and  _180
REMARK   75  A    between atoms: _179  and  _182
REMARK   76  A    between atoms: _182  and  _183
REMARK   77  A    between atoms: _183  and  _184
REMARK   78  A    between atoms: _189  and  _191
REMARK   79  A    between atoms: _191  and  _192
REMARK   80  A    between atoms: _194  and  _196
REMARK   81  A    between atoms: _196  and  _197
REMARK   82  A    between atoms: _196  and  _199
REMARK   83  A    between atoms: _199  and  _200
REMARK   84  A    between atoms: _200  and  _201
REMARK   85  A    between atoms: _201  and  _202
REMARK   86  A    between atoms: _202  and  _203
REMARK   87  A    between atoms: _207  and  _209
REMARK   88  A    between atoms: _209  and  _210
REMARK   89  A    between atoms: _209  and  _212
REMARK   90  A    between atoms: _212  and  _213
REMARK   91  A    between atoms: _223  and  _225
REMARK   92  A    between atoms: _225  and  _226
REMARK   93  A    between atoms: _225  and  _228
REMARK   94  A    between atoms: _228  and  _229
REMARK   95  A    between atoms: _232  and  _234
REMARK   96  A    between atoms: _234  and  _235
REMARK   97  A    between atoms: _234  and  _237
REMARK   98  A    between atoms: _237  and  _238
REMARK   99  A    between atoms: _238  and  _239
REMARK  100  A    between atoms: _239  and  _240
REMARK  101  A    between atoms: _240  and  _241
REMARK  102  A    between atoms: _245  and  _247
REMARK  103  A    between atoms: _247  and  _248
REMARK  104  A    between atoms: _247  and  _250
REMARK  105  A    between atoms: _250  and  _251
REMARK  106  A    between atoms: _257  and  _259
REMARK  107  A    between atoms: _259  and  _260
REMARK  108  A    between atoms: _259  and  _262
REMARK  109  A    between atoms: _262  and  _263
REMARK  110  A    between atoms: _269  and  _271
REMARK  111  A    between atoms: _271  and  _272
REMARK  112  A    between atoms: _271  and  _274
REMARK  113  A    between atoms: _274  and  _275
REMARK  114  A    between atoms: _278  and  _280
REMARK  115  A    between atoms: _280  and  _281
REMARK  116  A    between atoms: _280  and  _283
REMARK  117  A    between atoms: _283  and  _284
REMARK  118  A    between atoms: _286  and  _288
REMARK  119  A    between atoms: _288  and  _289
REMARK  120  A    between atoms: _288  and  _291
REMARK  121  A    between atoms: _291  and  _292
REMARK  122  A    between atoms: _302  and  _304
REMARK  123  A    between atoms: _304  and  _305
REMARK  124  A    between atoms: _307  and  _309
REMARK  125  A    between atoms: _309  and  _310
REMARK  126  A    between atoms: _309  and  _312
REMARK  127  A    between atoms: _312  and  _313
REMARK  128  A    between atoms: _316  and  _318
REMARK  129  A    between atoms: _318  and  _319
REMARK  130  A    between atoms: _318  and  _321
REMARK  131  A    between atoms: _321  and  _322
REMARK  132  A    between atoms: _325  and  _327
REMARK  133  A    between atoms: _327  and  _328
REMARK  134  A    between atoms: _330  and  _332
REMARK  135  A    between atoms: _332  and  _333
REMARK  136  A    between atoms: _332  and  _335
REMARK  137  A    between atoms: _335  and  _336
REMARK  138  A    between atoms: _339  and  _341
REMARK  139  A    between atoms: _341  and  _342
REMARK  140  A    between atoms: _345  and  _347
REMARK  141  A    between atoms: _347  and  _348
REMARK  142  A    between atoms: _347  and  _350
REMARK  143  A    between atoms: _350  and  _351
REMARK  144  A    between atoms: _356  and  _357
REMARK  145  A    between atoms: _359  and  _361
REMARK  146  A    between atoms: _361  and  _362
REMARK  147  A    between atoms: _361  and  _364
REMARK  148  A    between atoms: _364  and  _365
REMARK  149  A    between atoms: _368  and  _370
REMARK  150  A    between atoms: _370  and  _371
REMARK  151  A    between atoms: _374  and  _376
REMARK  152  A    between atoms: _376  and  _377
REMARK  153  A    between atoms: _376  and  _379
REMARK  154  A    between atoms: _379  and  _380
REMARK  155  A    between atoms: _380  and  _381
REMARK  156  A    between atoms: _381  and  _382
REMARK  157  A    between atoms: _391  and  _393
REMARK  158  A    between atoms: _393  and  _394
REMARK  159  A    between atoms: _393  and  _396
REMARK  160  A    between atoms: _396  and  _397
REMARK  161  A    between atoms: _407  and  _409
REMARK  162  A    between atoms: _409  and  _410
REMARK  163  A    between atoms: _409  and  _412
REMARK  164  A    between atoms: _412  and  _413
REMARK  165  A    between atoms: _418  and  _419
REMARK  166  A    between atoms: _421  and  _423
REMARK  167  A    between atoms: _423  and  _424
REMARK  168  A    between atoms: _423  and  _426
REMARK  169  A    between atoms: _426  and  _427
REMARK  170  A    between atoms: _430  and  _432
REMARK  171  A    between atoms: _432  and  _433
REMARK  172  A    between atoms: _432  and  _435
REMARK  173  A    between atoms: _435  and  _436
REMARK  174  A    between atoms: _436  and  _437
REMARK  175  A    between atoms: _437  and  _438
REMARK  176  A    between atoms: _438  and  _439
REMARK  177  A    between atoms: _443  and  _445
REMARK  178  A    between atoms: _445  and  _446
REMARK  179  A    between atoms: _445  and  _448
REMARK  180  A    between atoms: _448  and  _449
REMARK  181  A    between atoms: _452  and  _454
REMARK  182  A    between atoms: _454  and  _455
REMARK  183  A    between atoms: _454  and  _457
REMARK  184  A    between atoms: _460  and  _462
REMARK  185  A    between atoms: _462  and  _463
REMARK  186  A    between atoms: _462  and  _465
REMARK  187  A    between atoms: _465  and  _466
REMARK  188  A    between atoms: _469  and  _471
REMARK  189  A    between atoms: _471  and  _472
REMARK  190  A    between atoms: _471  and  _474
REMARK  191  A    between atoms: _474  and  _475
REMARK  192  A    between atoms: _477  and  _479
REMARK  193  A    between atoms: _479  and  _480
REMARK  194  A    between atoms: _482  and  _484
REMARK  195  A    between atoms: _484  and  _485
REMARK  196  A    between atoms: _484  and  _487
REMARK  197  A    between atoms: _487  and  _488
REMARK  198  A    between atoms: _491  and  _493
REMARK  199  A    between atoms: _493  and  _494
REMARK  200  A    between atoms: _493  and  _496
REMARK  201  A    between atoms: _496  and  _497
REMARK  202  A    between atoms: _500  and  _502
REMARK  203  A    between atoms: _502  and  _503
REMARK  204  A    between atoms: _502  and  _505
REMARK  205  A    between atoms: _505  and  _506
REMARK  206  A    between atoms: _511  and  _513
REMARK  207  A    between atoms: _513  and  _514
REMARK  208  A    between atoms: _513  and  _516
REMARK  209  A    between atoms: _516  and  _517
REMARK  210  A    between atoms: _520  and  _522
REMARK  211  A    between atoms: _522  and  _523
REMARK  212  A    between atoms: _522  and  _525
REMARK  213  A    between atoms: _525  and  _526
REMARK  214  A    between atoms: _526  and  _527
REMARK  215  A    between atoms: _527  and  _528
REMARK  216  A    between atoms: _537  and  _539
REMARK  217  A    between atoms: _539  and  _540
REMARK  218  A    between atoms: _539  and  _542
REMARK  219  A    between atoms: _542  and  _543
REMARK  220  A    between atoms: _546  and  _548
REMARK  221  A    between atoms: _548  and  _549
REMARK  222  A    between atoms: _551  and  _553
REMARK  223  A    between atoms: _553  and  _554
REMARK  224  A    between atoms: _553  and  _556
REMARK  225  A    between atoms: _556  and  _557
REMARK  226  A    between atoms: _557  and  _558
REMARK  227  A    between atoms: _561  and  _563
REMARK  228  A    between atoms: _563  and  _564
REMARK  229  A    between atoms: _563  and  _566
REMARK  230  A    between atoms: _566  and  _567
REMARK  231  A    between atoms: _567  and  _568
REMARK  232  A    between atoms: _568  and  _569
REMARK  233  A    between atoms: _578  and  _580
REMARK  234  A    between atoms: _580  and  _581
REMARK  235  A    between atoms: _580  and  _583
REMARK  236  A    between atoms: _583  and  _584
REMARK  237  A    between atoms: _584  and  _585
REMARK  238  A    between atoms: _585  and  _586
REMARK  239  A    between atoms: _586  and  _587
REMARK  240  A    between atoms: _591  and  _593
REMARK  241  A    between atoms: _593  and  _594
REMARK  242  A    between atoms: _593  and  _596
REMARK  243  A    between atoms: _596  and  _597
REMARK  244  A    between atoms: _603  and  _605
REMARK  245  A    between atoms: _605  and  _606
REMARK  246  A    between atoms: _609  and  _611
REMARK  247  A    between atoms: _611  and  _612
REMARK  248  A    between atoms: _611  and  _614
REMARK  249  A    between atoms: _614  and  _615
REMARK  250  A    between atoms: _618  and  _620
REMARK  251  A    between atoms: _620  and  _621
REMARK  252  A    between atoms: _620  and  _623
REMARK  253  A    between atoms: _623  and  _624
REMARK  254  A    between atoms: _626  and  _628
REMARK  255  A    between atoms: _628  and  _629
REMARK  256  A    between atoms: _628  and  _631
REMARK  257  A    between atoms: _631  and  _632
REMARK  258  A    between atoms: _632  and  _633
REMARK  259  A    between atoms: _638  and  _640
REMARK  260  A    between atoms: _640  and  _641
REMARK  261  A    between atoms: _640  and  _643
REMARK  262  A    between atoms: _643  and  _644
REMARK  263  A    between atoms: _646  and  _648
REMARK  264  A    between atoms: _648  and  _649
REMARK  265  A    between atoms: _648  and  _651
REMARK  266  A    between atoms: _651  and  _652
REMARK  267  A    between atoms: _654  and  _656
REMARK  268  A    between atoms: _656  and  _657
REMARK  269  A    between atoms: _656  and  _659
REMARK  270  A    between atoms: _659  and  _660
REMARK  271  A    between atoms: _663  and  _665
REMARK  272  A    between atoms: _665  and  _666
REMARK  273  A    between atoms: _668  and  _670
REMARK  274  A    between atoms: _670  and  _671
REMARK  275  A    between atoms: _670  and  _673
REMARK  276  A    between atoms: _673  and  _674
REMARK  277  A    between atoms: _677  and  _679
REMARK  278  A    between atoms: _679  and  _680
REMARK  279  A    between atoms: _679  and  _682
REMARK  280  A    between atoms: _685  and  _687
REMARK  281  A    between atoms: _687  and  _688
REMARK  282  A    between atoms: _690  and  _692
REMARK  283  A    between atoms: _692  and  _693
REMARK  284  A    between atoms: _696  and  _698
REMARK  285  A    between atoms: _698  and  _699
REMARK  286  A    between atoms: _698  and  _701
REMARK                            x       y       z     vdW  Elec       q    Type
REMARK                         _______ _______ _______ _____ _____    ______ ____
ROOT
ATOM      1  O   HOH     1      14.081   0.735  -5.759  0.00  0.00    +0.000 OA
ENDROOT
TORSDOF 0
REMARK  Name = ../refined-set-2016/1fkn/1fkn_pocket.pdb
REMARK  286 active torsions:
REMARK  status: ('A' for Active; 'I' for Inactive)
REMARK    1  A    between atoms: _1  and  _3
REMARK    2  A    between atoms: _3  and  _4
REMARK    3  A    between atoms: _3  and  _6
REMARK    4  A    between atoms: _6  and  _7
REMARK    5  A    between atoms: _7  and  _8
REMARK    6  A    between atoms: _8  and  _9
REMARK    7  A    between atoms: _9  and  _10
REMARK    8  A    between atoms: _14  and  _16
REMARK    9  A    between atoms: _16  and  _17
REMARK   10  A    between atoms: _16  and  _19
REMARK   11  A    between atoms: _19  and  _20
REMARK   12  A    between atoms: _22  and  _24
REMARK   13  A    between atoms: _24  and  _25
REMARK   14  A    between atoms: _27  and  _29
REMARK   15  A    between atoms: _29  and  _30
REMARK   16  A    between atoms: _29  and  _32
REMARK   17  A    between atoms: _32  and  _33
REMARK   18  A    between atoms: _33  and  _34
REMARK   19  A    between atoms: _39  and  _41
REMARK   20  A    between atoms: _41  and  _42
REMARK   21  A    between atoms: _44  and  _46
REMARK   22  A    between atoms: _46  and  _47
REMARK   23  A    between atoms: _46  and  _49
REMARK   24  A    between atoms: _49  and  _50
REMARK   25  A    between atoms: _55  and  _56
REMARK   26  A    between atoms: _58  and  _60
REMARK   27  A    between atoms: _60  and  _61
REMARK   28  A    between atoms: _60  and  _63
REMARK   29  A    between atoms: _63  and  _64
REMARK   30  A    between atoms: _67  and  _69
REMARK   31  A    between atoms: _69  and  _70
REMARK   32  A    between atoms: _69  and  _72
REMARK   33  A    between atoms: _75  and  _77
REMARK   34  A    between atoms: _77  and  _78
REMARK   35  A    between atoms: _77  and  _80
REMARK   36  A    between atoms: _80  and  _81
REMARK   37  A    between atoms: _84  and  _86
REMARK   38  A    between atoms: _86  and  _87
REMARK   39  A    between atoms: _86  and  _89
REMARK   40  A    between atoms: _89  and  _90
REMARK   41  A    between atoms: _93  and  _95
REMARK   42  A    between atoms: _95  and  _96
REMARK   43  A    between atoms: _98  and  _100
REMARK   44  A    between atoms: _100  and  _101
REMARK   45  A    between atoms: _100  and  _103
REMARK   46  A    between atoms: _103  and  _104
REMARK   47  A    between atoms: _106  and  _108
REMARK   48  A    between atoms: _108  and  _109
REMARK   49  A    between atoms: _108  and  _111
REMARK   50  A    between atoms: _111  and  _112
REMARK   51  A    between atoms: _114  and  _116
REMARK   52  A    between atoms: _116  and  _117
REMARK   53  A    between atoms: _116  and  _119
REMARK   54  A    between atoms: _119  and  _120
REMARK   55  A    between atoms: _125  and  _127
REMARK   56  A    between atoms: _127  and  _128
REMARK   57  A    between atoms: _127  and  _130
REMARK   58  A    between atoms: _130  and  _131
REMARK   59  A    between atoms: _136  and  _137
REMARK   60  A    between atoms: _139  and  _141
REMARK   61  A    between atoms: _141  and  _142
REMARK   62  A    between atoms: _141  and  _144
REMARK   63  A    between atoms: _148  and  _149
REMARK   64  A    between atoms: _154  and  _156
REMARK   65  A    between atoms: _156  and  _157
REMARK   66  A    between atoms: _156  and  _159
REMARK   67  A    between atoms: _159  and  _160
REMARK   68  A    between atoms: _165  and  _166
REMARK   69  A    between atoms: _168  and  _170
REMARK   70  A    between atoms: _170  and  _171
REMARK   71  A    between atoms: _170  and  _173
REMARK   72  A    between atoms: _173  and  _174
REMARK   73  A    between atoms: _177  and  _179
REMARK   74  A    between atoms: _179  and  _180
REMARK   75  A    between atoms: _179  and  _182
REMARK   76  A    between atoms: _182  and  _183
REMARK   77  A    between atoms: _183  and  _184
REMARK   78  A    between atoms: _189  and  _191
REMARK   79  A    between atoms: _191  and  _192
REMARK   80  A    between atoms: _194  and  _196
REMARK   81  A    between atoms: _196  and  _197
REMARK   82  A    between atoms: _196  and  _199
REMARK   83  A    between atoms: _199  and  _200
REMARK   84  A    between atoms: _200  and  _201
REMARK   85  A    between atoms: _201  and  _202
REMARK   86  A    between atoms: _202  and  _203
REMARK   87  A    between atoms: _207  and  _209
REMARK   88  A    between atoms: _209  and  _210
REMARK   89  A    between atoms: _209  and  _212
REMARK   90  A    between atoms: _212  and  _213
REMARK   91  A    between atoms: _223  and  _225
REMARK   92  A    between atoms: _225  and  _226
REMARK   93  A    between atoms: _225  and  _228
REMARK   94  A    between atoms: _228  and  _229
REMARK   95  A    between atoms: _232  and  _234
REMARK   96  A    between atoms: _234  and  _235
REMARK   97  A    between atoms: _234  and  _237
REMARK   98  A    between atoms: _237  and  _238
REMARK   99  A    between atoms: _238  and  _239
REMARK  100  A    between atoms: _239  and  _240
REMARK  101  A    between atoms: _240  and  _241
REMARK  102  A    between atoms: _245  and  _247
REMARK  103  A    between atoms: _247  and  _248
REMARK  104  A    between atoms: _247  and  _250
REMARK  105  A    between atoms: _250  and  _251
REMARK  106  A    between atoms: _257  and  _259
REMARK  107  A    between atoms: _259  and  _260
REMARK  108  A    between atoms: _259  and  _262
REMARK  109  A    between atoms: _262  and  _263
REMARK  110  A    between atoms: _269  and  _271
REMARK  111  A    between atoms: _271  and  _272
REMARK  112  A    between atoms: _271  and  _274
REMARK  113  A    between atoms: _274  and  _275
REMARK  114  A    between atoms: _278  and  _280
REMARK  115  A    between atoms: _280  and  _281
REMARK  116  A    between atoms: _280  and  _283
REMARK  117  A    between atoms: _283  and  _284
REMARK  118  A    between atoms: _286  and  _288
REMARK  119  A    between atoms: _288  and  _289
REMARK  120  A    between atoms: _288  and  _291
REMARK  121  A    between atoms: _291  and  _292
REMARK  122  A    between atoms: _302  and  _304
REMARK  123  A    between atoms: _304  and  _305
REMARK  124  A    between atoms: _307  and  _309
REMARK  125  A    between atoms: _309  and  _310
REMARK  126  A    between atoms: _309  and  _312
REMARK  127  A    between atoms: _312  and  _313
REMARK  128  A    between atoms: _316  and  _318
REMARK  129  A    between atoms: _318  and  _319
REMARK  130  A    between atoms: _318  and  _321
REMARK  131  A    between atoms: _321  and  _322
REMARK  132  A    between atoms: _325  and  _327
REMARK  133  A    between atoms: _327  and  _328
REMARK  134  A    between atoms: _330  and  _332
REMARK  135  A    between atoms: _332  and  _333
REMARK  136  A    between atoms: _332  and  _335
REMARK  137  A    between atoms: _335  and  _336
REMARK  138  A    between atoms: _339  and  _341
REMARK  139  A    between atoms: _341  and  _342
REMARK  140  A    between atoms: _345  and  _347
REMARK  141  A    between atoms: _347  and  _348
REMARK  142  A    between atoms: _347  and  _350
REMARK  143  A    between atoms: _350  and  _351
REMARK  144  A    between atoms: _356  and  _357
REMARK  145  A    between atoms: _359  and  _361
REMARK  146  A    between atoms: _361  and  _362
REMARK  147  A    between atoms: _361  and  _364
REMARK  148  A    between atoms: _364  and  _365
REMARK  149  A    between atoms: _368  and  _370
REMARK  150  A    between atoms: _370  and  _371
REMARK  151  A    between atoms: _374  and  _376
REMARK  152  A    between atoms: _376  and  _377
REMARK  153  A    between atoms: _376  and  _379
REMARK  154  A    between atoms: _379  and  _380
REMARK  155  A    between atoms: _380  and  _381
REMARK  156  A    between atoms: _381  and  _382
REMARK  157  A    between atoms: _391  and  _393
REMARK  158  A    between atoms: _393  and  _394
REMARK  159  A    between atoms: _393  and  _396
REMARK  160  A    between atoms: _396  and  _397
REMARK  161  A    between atoms: _407  and  _409
REMARK  162  A    between atoms: _409  and  _410
REMARK  163  A    between atoms: _409  and  _412
REMARK  164  A    between atoms: _412  and  _413
REMARK  165  A    between atoms: _418  and  _419
REMARK  166  A    between atoms: _421  and  _423
REMARK  167  A    between atoms: _423  and  _424
REMARK  168  A    between atoms: _423  and  _426
REMARK  169  A    between atoms: _426  and  _427
REMARK  170  A    between atoms: _430  and  _432
REMARK  171  A    between atoms: _432  and  _433
REMARK  172  A    between atoms: _432  and  _435
REMARK  173  A    between atoms: _435  and  _436
REMARK  174  A    between atoms: _436  and  _437
REMARK  175  A    between atoms: _437  and  _438
REMARK  176  A    between atoms: _438  and  _439
REMARK  177  A    between atoms: _443  and  _445
REMARK  178  A    between atoms: _445  and  _446
REMARK  179  A    between atoms: _445  and  _448
REMARK  180  A    between atoms: _448  and  _449
REMARK  181  A    between atoms: _452  and  _454
REMARK  182  A    between atoms: _454  and  _455
REMARK  183  A    between atoms: _454  and  _457
REMARK  184  A    between atoms: _460  and  _462
REMARK  185  A    between atoms: _462  and  _463
REMARK  186  A    between atoms: _462  and  _465
REMARK  187  A    between atoms: _465  and  _466
REMARK  188  A    between atoms: _469  and  _471
REMARK  189  A    between atoms: _471  and  _472
REMARK  190  A    between atoms: _471  and  _474
REMARK  191  A    between atoms: _474  and  _475
REMARK  192  A    between atoms: _477  and  _479
REMARK  193  A    between atoms: _479  and  _480
REMARK  194  A    between atoms: _482  and  _484
REMARK  195  A    between atoms: _484  and  _485
REMARK  196  A    between atoms: _484  and  _487
REMARK  197  A    between atoms: _487  and  _488
REMARK  198  A    between atoms: _491  and  _493
REMARK  199  A    between atoms: _493  and  _494
REMARK  200  A    between atoms: _493  and  _496
REMARK  201  A    between atoms: _496  and  _497
REMARK  202  A    between atoms: _500  and  _502
REMARK  203  A    between atoms: _502  and  _503
REMARK  204  A    between atoms: _502  and  _505
REMARK  205  A    between atoms: _505  and  _506
REMARK  206  A    between atoms: _511  and  _513
REMARK  207  A    between atoms: _513  and  _514
REMARK  208  A    between atoms: _513  and  _516
REMARK  209  A    between atoms: _516  and  _517
REMARK  210  A    between atoms: _520  and  _522
REMARK  211  A    between atoms: _522  and  _523
REMARK  212  A    between atoms: _522  and  _525
REMARK  213  A    between atoms: _525  and  _526
REMARK  214  A    between atoms: _526  and  _527
REMARK  215  A    between atoms: _527  and  _528
REMARK  216  A    between atoms: _537  and  _539
REMARK  217  A    between atoms: _539  and  _540
REMARK  218  A    between atoms: _539  and  _542
REMARK  219  A    between atoms: _542  and  _543
REMARK  220  A    between atoms: _546  and  _548
REMARK  221  A    between atoms: _548  and  _549
REMARK  222  A    between atoms: _551  and  _553
REMARK  223  A    between atoms: _553  and  _554
REMARK  224  A    between atoms: _553  and  _556
REMARK  225  A    between atoms: _556  and  _557
REMARK  226  A    between atoms: _557  and  _558
REMARK  227  A    between atoms: _561  and  _563
REMARK  228  A    between atoms: _563  and  _564
REMARK  229  A    between atoms: _563  and  _566
REMARK  230  A    between atoms: _566  and  _567
REMARK  231  A    between atoms: _567  and  _568
REMARK  232  A    between atoms: _568  and  _569
REMARK  233  A    between atoms: _578  and  _580
REMARK  234  A    between atoms: _580  and  _581
REMARK  235  A    between atoms: _580  and  _583
REMARK  236  A    between atoms: _583  and  _584
REMARK  237  A    between atoms: _584  and  _585
REMARK  238  A    between atoms: _585  and  _586
REMARK  239  A    between atoms: _586  and  _587
REMARK  240  A    between atoms: _591  and  _593
REMARK  241  A    between atoms: _593  and  _594
REMARK  242  A    between atoms: _593  and  _596
REMARK  243  A    between atoms: _596  and  _597
REMARK  244  A    between atoms: _603  and  _605
REMARK  245  A    between atoms: _605  and  _606
REMARK  246  A    between atoms: _609  and  _611
REMARK  247  A    between atoms: _611  and  _612
REMARK  248  A    between atoms: _611  and  _614
REMARK  249  A    between atoms: _614  and  _615
REMARK  250  A    between atoms: _618  and  _620
REMARK  251  A    between atoms: _620  and  _621
REMARK  252  A    between atoms: _620  and  _623
REMARK  253  A    between atoms: _623  and  _624
REMARK  254  A    between atoms: _626  and  _628
REMARK  255  A    between atoms: _628  and  _629
REMARK  256  A    between atoms: _628  and  _631
REMARK  257  A    between atoms: _631  and  _632
REMARK  258  A    between atoms: _632  and  _633
REMARK  259  A    between atoms: _638  and  _640
REMARK  260  A    between atoms: _640  and  _641
REMARK  261  A    between atoms: _640  and  _643
REMARK  262  A    between atoms: _643  and  _644
REMARK  263  A    between atoms: _646  and  _648
REMARK  264  A    between atoms: _648  and  _649
REMARK  265  A    between atoms: _648  and  _651
REMARK  266  A    between atoms: _651  and  _652
REMARK  267  A    between atoms: _654  and  _656
REMARK  268  A    between atoms: _656  and  _657
REMARK  269  A    between atoms: _656  and  _659
REMARK  270  A    between atoms: _659  and  _660
REMARK  271  A    between atoms: _663  and  _665
REMARK  272  A    between atoms: _665  and  _666
REMARK  273  A    between atoms: _668  and  _670
REMARK  274  A    between atoms: _670  and  _671
REMARK  275  A    between atoms: _670  and  _673
REMARK  276  A    between atoms: _673  and  _674
REMARK  277  A    between atoms: _677  and  _679
REMARK  278  A    between atoms: _679  and  _680
REMARK  279  A    between atoms: _679  and  _682
REMARK  280  A    between atoms: _685  and  _687
REMARK  281  A    between atoms: _687  and  _688
REMARK  282  A    between atoms: _690  and  _692
REMARK  283  A    between atoms: _692  and  _693
REMARK  284  A    between atoms: _696  and  _698
REMARK  285  A    between atoms: _698  and  _699
REMARK  286  A    between atoms: _698  and  _701
REMARK                            x       y       z     vdW  Elec       q    Type
REMARK                         _______ _______ _______ _____ _____    ______ ____
ROOT
ATOM      1  O   HOH     1      17.835 -10.435   2.103  0.00  0.00    +0.000 OA
ENDROOT
TORSDOF 0
REMARK  Name = ../refined-set-2016/1fkn/1fkn_pocket.pdb
REMARK  286 active torsions:
REMARK  status: ('A' for Active; 'I' for Inactive)
REMARK    1  A    between atoms: _1  and  _3
REMARK    2  A    between atoms: _3  and  _4
REMARK    3  A    between atoms: _3  and  _6
REMARK    4  A    between atoms: _6  and  _7
REMARK    5  A    between atoms: _7  and  _8
REMARK    6  A    between atoms: _8  and  _9
REMARK    7  A    between atoms: _9  and  _10
REMARK    8  A    between atoms: _14  and  _16
REMARK    9  A    between atoms: _16  and  _17
REMARK   10  A    between atoms: _16  and  _19
REMARK   11  A    between atoms: _19  and  _20
REMARK   12  A    between atoms: _22  and  _24
REMARK   13  A    between atoms: _24  and  _25
REMARK   14  A    between atoms: _27  and  _29
REMARK   15  A    between atoms: _29  and  _30
REMARK   16  A    between atoms: _29  and  _32
REMARK   17  A    between atoms: _32  and  _33
REMARK   18  A    between atoms: _33  and  _34
REMARK   19  A    between atoms: _39  and  _41
REMARK   20  A    between atoms: _41  and  _42
REMARK   21  A    between atoms: _44  and  _46
REMARK   22  A    between atoms: _46  and  _47
REMARK   23  A    between atoms: _46  and  _49
REMARK   24  A    between atoms: _49  and  _50
REMARK   25  A    between atoms: _55  and  _56
REMARK   26  A    between atoms: _58  and  _60
REMARK   27  A    between atoms: _60  and  _61
REMARK   28  A    between atoms: _60  and  _63
REMARK   29  A    between atoms: _63  and  _64
REMARK   30  A    between atoms: _67  and  _69
REMARK   31  A    between atoms: _69  and  _70
REMARK   32  A    between atoms: _69  and  _72
REMARK   33  A    between atoms: _75  and  _77
REMARK   34  A    between atoms: _77  and  _78
REMARK   35  A    between atoms: _77  and  _80
REMARK   36  A    between atoms: _80  and  _81
REMARK   37  A    between atoms: _84  and  _86
REMARK   38  A    between atoms: _86  and  _87
REMARK   39  A    between atoms: _86  and  _89
REMARK   40  A    between atoms: _89  and  _90
REMARK   41  A    between atoms: _93  and  _95
REMARK   42  A    between atoms: _95  and  _96
REMARK   43  A    between atoms: _98  and  _100
REMARK   44  A    between atoms: _100  and  _101
REMARK   45  A    between atoms: _100  and  _103
REMARK   46  A    between atoms: _103  and  _104
REMARK   47  A    between atoms: _106  and  _108
REMARK   48  A    between atoms: _108  and  _109
REMARK   49  A    between atoms: _108  and  _111
REMARK   50  A    between atoms: _111  and  _112
REMARK   51  A    between atoms: _114  and  _116
REMARK   52  A    between atoms: _116  and  _117
REMARK   53  A    between atoms: _116  and  _119
REMARK   54  A    between atoms: _119  and  _120
REMARK   55  A    between atoms: _125  and  _127
REMARK   56  A    between atoms: _127  and  _128
REMARK   57  A    between atoms: _127  and  _130
REMARK   58  A    between atoms: _130  and  _131
REMARK   59  A    between atoms: _136  and  _137
REMARK   60  A    between atoms: _139  and  _141
REMARK   61  A    between atoms: _141  and  _142
REMARK   62  A    between atoms: _141  and  _144
REMARK   63  A    between atoms: _148  and  _149
REMARK   64  A    between atoms: _154  and  _156
REMARK   65  A    between atoms: _156  and  _157
REMARK   66  A    between atoms: _156  and  _159
REMARK   67  A    between atoms: _159  and  _160
REMARK   68  A    between atoms: _165  and  _166
REMARK   69  A    between atoms: _168  and  _170
REMARK   70  A    between atoms: _170  and  _171
REMARK   71  A    between atoms: _170  and  _173
REMARK   72  A    between atoms: _173  and  _174
REMARK   73  A    between atoms: _177  and  _179
REMARK   74  A    between atoms: _179  and  _180
REMARK   75  A    between atoms: _179  and  _182
REMARK   76  A    between atoms: _182  and  _183
REMARK   77  A    between atoms: _183  and  _184
REMARK   78  A    between atoms: _189  and  _191
REMARK   79  A    between atoms: _191  and  _192
REMARK   80  A    between atoms: _194  and  _196
REMARK   81  A    between atoms: _196  and  _197
REMARK   82  A    between atoms: _196  and  _199
REMARK   83  A    between atoms: _199  and  _200
REMARK   84  A    between atoms: _200  and  _201
REMARK   85  A    between atoms: _201  and  _202
REMARK   86  A    between atoms: _202  and  _203
REMARK   87  A    between atoms: _207  and  _209
REMARK   88  A    between atoms: _209  and  _210
REMARK   89  A    between atoms: _209  and  _212
REMARK   90  A    between atoms: _212  and  _213
REMARK   91  A    between atoms: _223  and  _225
REMARK   92  A    between atoms: _225  and  _226
REMARK   93  A    between atoms: _225  and  _228
REMARK   94  A    between atoms: _228  and  _229
REMARK   95  A    between atoms: _232  and  _234
REMARK   96  A    between atoms: _234  and  _235
REMARK   97  A    between atoms: _234  and  _237
REMARK   98  A    between atoms: _237  and  _238
REMARK   99  A    between atoms: _238  and  _239
REMARK  100  A    between atoms: _239  and  _240
REMARK  101  A    between atoms: _240  and  _241
REMARK  102  A    between atoms: _245  and  _247
REMARK  103  A    between atoms: _247  and  _248
REMARK  104  A    between atoms: _247  and  _250
REMARK  105  A    between atoms: _250  and  _251
REMARK  106  A    between atoms: _257  and  _259
REMARK  107  A    between atoms: _259  and  _260
REMARK  108  A    between atoms: _259  and  _262
REMARK  109  A    between atoms: _262  and  _263
REMARK  110  A    between atoms: _269  and  _271
REMARK  111  A    between atoms: _271  and  _272
REMARK  112  A    between atoms: _271  and  _274
REMARK  113  A    between atoms: _274  and  _275
REMARK  114  A    between atoms: _278  and  _280
REMARK  115  A    between atoms: _280  and  _281
REMARK  116  A    between atoms: _280  and  _283
REMARK  117  A    between atoms: _283  and  _284
REMARK  118  A    between atoms: _286  and  _288
REMARK  119  A    between atoms: _288  and  _289
REMARK  120  A    between atoms: _288  and  _291
REMARK  121  A    between atoms: _291  and  _292
REMARK  122  A    between atoms: _302  and  _304
REMARK  123  A    between atoms: _304  and  _305
REMARK  124  A    between atoms: _307  and  _309
REMARK  125  A    between atoms: _309  and  _310
REMARK  126  A    between atoms: _309  and  _312
REMARK  127  A    between atoms: _312  and  _313
REMARK  128  A    between atoms: _316  and  _318
REMARK  129  A    between atoms: _318  and  _319
REMARK  130  A    between atoms: _318  and  _321
REMARK  131  A    between atoms: _321  and  _322
REMARK  132  A    between atoms: _325  and  _327
REMARK  133  A    between atoms: _327  and  _328
REMARK  134  A    between atoms: _330  and  _332
REMARK  135  A    between atoms: _332  and  _333
REMARK  136  A    between atoms: _332  and  _335
REMARK  137  A    between atoms: _335  and  _336
REMARK  138  A    between atoms: _339  and  _341
REMARK  139  A    between atoms: _341  and  _342
REMARK  140  A    between atoms: _345  and  _347
REMARK  141  A    between atoms: _347  and  _348
REMARK  142  A    between atoms: _347  and  _350
REMARK  143  A    between atoms: _350  and  _351
REMARK  144  A    between atoms: _356  and  _357
REMARK  145  A    between atoms: _359  and  _361
REMARK  146  A    between atoms: _361  and  _362
REMARK  147  A    between atoms: _361  and  _364
REMARK  148  A    between atoms: _364  and  _365
REMARK  149  A    between atoms: _368  and  _370
REMARK  150  A    between atoms: _370  and  _371
REMARK  151  A    between atoms: _374  and  _376
REMARK  152  A    between atoms: _376  and  _377
REMARK  153  A    between atoms: _376  and  _379
REMARK  154  A    between atoms: _379  and  _380
REMARK  155  A    between atoms: _380  and  _381
REMARK  156  A    between atoms: _381  and  _382
REMARK  157  A    between atoms: _391  and  _393
REMARK  158  A    between atoms: _393  and  _394
REMARK  159  A    between atoms: _393  and  _396
REMARK  160  A    between atoms: _396  and  _397
REMARK  161  A    between atoms: _407  and  _409
REMARK  162  A    between atoms: _409  and  _410
REMARK  163  A    between atoms: _409  and  _412
REMARK  164  A    between atoms: _412  and  _413
REMARK  165  A    between atoms: _418  and  _419
REMARK  166  A    between atoms: _421  and  _423
REMARK  167  A    between atoms: _423  and  _424
REMARK  168  A    between atoms: _423  and  _426
REMARK  169  A    between atoms: _426  and  _427
REMARK  170  A    between atoms: _430  and  _432
REMARK  171  A    between atoms: _432  and  _433
REMARK  172  A    between atoms: _432  and  _435
REMARK  173  A    between atoms: _435  and  _436
REMARK  174  A    between atoms: _436  and  _437
REMARK  175  A    between atoms: _437  and  _438
REMARK  176  A    between atoms: _438  and  _439
REMARK  177  A    between atoms: _443  and  _445
REMARK  178  A    between atoms: _445  and  _446
REMARK  179  A    between atoms: _445  and  _448
REMARK  180  A    between atoms: _448  and  _449
REMARK  181  A    between atoms: _452  and  _454
REMARK  182  A    between atoms: _454  and  _455
REMARK  183  A    between atoms: _454  and  _457
REMARK  184  A    between atoms: _460  and  _462
REMARK  185  A    between atoms: _462  and  _463
REMARK  186  A    between atoms: _462  and  _465
REMARK  187  A    between atoms: _465  and  _466
REMARK  188  A    between atoms: _469  and  _471
REMARK  189  A    between atoms: _471  and  _472
REMARK  190  A    between atoms: _471  and  _474
REMARK  191  A    between atoms: _474  and  _475
REMARK  192  A    between atoms: _477  and  _479
REMARK  193  A    between atoms: _479  and  _480
REMARK  194  A    between atoms: _482  and  _484
REMARK  195  A    between atoms: _484  and  _485
REMARK  196  A    between atoms: _484  and  _487
REMARK  197  A    between atoms: _487  and  _488
REMARK  198  A    between atoms: _491  and  _493
REMARK  199  A    between atoms: _493  and  _494
REMARK  200  A    between atoms: _493  and  _496
REMARK  201  A    between atoms: _496  and  _497
REMARK  202  A    between atoms: _500  and  _502
REMARK  203  A    between atoms: _502  and  _503
REMARK  204  A    between atoms: _502  and  _505
REMARK  205  A    between atoms: _505  and  _506
REMARK  206  A    between atoms: _511  and  _513
REMARK  207  A    between atoms: _513  and  _514
REMARK  208  A    between atoms: _513  and  _516
REMARK  209  A    between atoms: _516  and  _517
REMARK  210  A    between atoms: _520  and  _522
REMARK  211  A    between atoms: _522  and  _523
REMARK  212  A    between atoms: _522  and  _525
REMARK  213  A    between atoms: _525  and  _526
REMARK  214  A    between atoms: _526  and  _527
REMARK  215  A    between atoms: _527  and  _528
REMARK  216  A    between atoms: _537  and  _539
REMARK  217  A    between atoms: _539  and  _540
REMARK  218  A    between atoms: _539  and  _542
REMARK  219  A    between atoms: _542  and  _543
REMARK  220  A    between atoms: _546  and  _548
REMARK  221  A    between atoms: _548  and  _549
REMARK  222  A    between atoms: _551  and  _553
REMARK  223  A    between atoms: _553  and  _554
REMARK  224  A    between atoms: _553  and  _556
REMARK  225  A    between atoms: _556  and  _557
REMARK  226  A    between atoms: _557  and  _558
REMARK  227  A    between atoms: _561  and  _563
REMARK  228  A    between atoms: _563  and  _564
REMARK  229  A    between atoms: _563  and  _566
REMARK  230  A    between atoms: _566  and  _567
REMARK  231  A    between atoms: _567  and  _568
REMARK  232  A    between atoms: _568  and  _569
REMARK  233  A    between atoms: _578  and  _580
REMARK  234  A    between atoms: _580  and  _581
REMARK  235  A    between atoms: _580  and  _583
REMARK  236  A    between atoms: _583  and  _584
REMARK  237  A    between atoms: _584  and  _585
REMARK  238  A    between atoms: _585  and  _586
REMARK  239  A    between atoms: _586  and  _587
REMARK  240  A    between atoms: _591  and  _593
REMARK  241  A    between atoms: _593  and  _594
REMARK  242  A    between atoms: _593  and  _596
REMARK  243  A    between atoms: _596  and  _597
REMARK  244  A    between atoms: _603  and  _605
REMARK  245  A    between atoms: _605  and  _606
REMARK  246  A    between atoms: _609  and  _611
REMARK  247  A    between atoms: _611  and  _612
REMARK  248  A    between atoms: _611  and  _614
REMARK  249  A    between atoms: _614  and  _615
REMARK  250  A    between atoms: _618  and  _620
REMARK  251  A    between atoms: _620  and  _621
REMARK  252  A    between atoms: _620  and  _623
REMARK  253  A    between atoms: _623  and  _624
REMARK  254  A    between atoms: _626  and  _628
REMARK  255  A    between atoms: _628  and  _629
REMARK  256  A    between atoms: _628  and  _631
REMARK  257  A    between atoms: _631  and  _632
REMARK  258  A    between atoms: _632  and  _633
REMARK  259  A    between atoms: _638  and  _640
REMARK  260  A    between atoms: _640  and  _641
REMARK  261  A    between atoms: _640  and  _643
REMARK  262  A    between atoms: _643  and  _644
REMARK  263  A    between atoms: _646  and  _648
REMARK  264  A    between atoms: _648  and  _649
REMARK  265  A    between atoms: _648  and  _651
REMARK  266  A    between atoms: _651  and  _652
REMARK  267  A    between atoms: _654  and  _656
REMARK  268  A    between atoms: _656  and  _657
REMARK  269  A    between atoms: _656  and  _659
REMARK  270  A    between atoms: _659  and  _660
REMARK  271  A    between atoms: _663  and  _665
REMARK  272  A    between atoms: _665  and  _666
REMARK  273  A    between atoms: _668  and  _670
REMARK  274  A    between atoms: _670  and  _671
REMARK  275  A    between atoms: _670  and  _673
REMARK  276  A    between atoms: _673  and  _674
REMARK  277  A    between atoms: _677  and  _679
REMARK  278  A    between atoms: _679  and  _680
REMARK  279  A    between atoms: _679  and  _682
REMARK  280  A    between atoms: _685  and  _687
REMARK  281  A    between atoms: _687  and  _688
REMARK  282  A    between atoms: _690  and  _692
REMARK  283  A    between atoms: _692  and  _693
REMARK  284  A    between atoms: _696  and  _698
REMARK  285  A    between atoms: _698  and  _699
REMARK  286  A    between atoms: _698  and  _701
REMARK                            x       y       z     vdW  Elec       q    Type
REMARK                         _______ _______ _______ _____ _____    ______ ____
ROOT
ATOM      1  O   HOH     1      18.748   3.829   3.113  0.00  0.00    +0.000 OA
ENDROOT
TORSDOF 0
REMARK  Name = ../refined-set-2016/1fkn/1fkn_pocket.pdb
REMARK  286 active torsions:
REMARK  status: ('A' for Active; 'I' for Inactive)
REMARK    1  A    between atoms: _1  and  _3
REMARK    2  A    between atoms: _3  and  _4
REMARK    3  A    between atoms: _3  and  _6
REMARK    4  A    between atoms: _6  and  _7
REMARK    5  A    between atoms: _7  and  _8
REMARK    6  A    between atoms: _8  and  _9
REMARK    7  A    between atoms: _9  and  _10
REMARK    8  A    between atoms: _14  and  _16
REMARK    9  A    between atoms: _16  and  _17
REMARK   10  A    between atoms: _16  and  _19
REMARK   11  A    between atoms: _19  and  _20
REMARK   12  A    between atoms: _22  and  _24
REMARK   13  A    between atoms: _24  and  _25
REMARK   14  A    between atoms: _27  and  _29
REMARK   15  A    between atoms: _29  and  _30
REMARK   16  A    between atoms: _29  and  _32
REMARK   17  A    between atoms: _32  and  _33
REMARK   18  A    between atoms: _33  and  _34
REMARK   19  A    between atoms: _39  and  _41
REMARK   20  A    between atoms: _41  and  _42
REMARK   21  A    between atoms: _44  and  _46
REMARK   22  A    between atoms: _46  and  _47
REMARK   23  A    between atoms: _46  and  _49
REMARK   24  A    between atoms: _49  and  _50
REMARK   25  A    between atoms: _55  and  _56
REMARK   26  A    between atoms: _58  and  _60
REMARK   27  A    between atoms: _60  and  _61
REMARK   28  A    between atoms: _60  and  _63
REMARK   29  A    between atoms: _63  and  _64
REMARK   30  A    between atoms: _67  and  _69
REMARK   31  A    between atoms: _69  and  _70
REMARK   32  A    between atoms: _69  and  _72
REMARK   33  A    between atoms: _75  and  _77
REMARK   34  A    between atoms: _77  and  _78
REMARK   35  A    between atoms: _77  and  _80
REMARK   36  A    between atoms: _80  and  _81
REMARK   37  A    between atoms: _84  and  _86
REMARK   38  A    between atoms: _86  and  _87
REMARK   39  A    between atoms: _86  and  _89
REMARK   40  A    between atoms: _89  and  _90
REMARK   41  A    between atoms: _93  and  _95
REMARK   42  A    between atoms: _95  and  _96
REMARK   43  A    between atoms: _98  and  _100
REMARK   44  A    between atoms: _100  and  _101
REMARK   45  A    between atoms: _100  and  _103
REMARK   46  A    between atoms: _103  and  _104
REMARK   47  A    between atoms: _106  and  _108
REMARK   48  A    between atoms: _108  and  _109
REMARK   49  A    between atoms: _108  and  _111
REMARK   50  A    between atoms: _111  and  _112
REMARK   51  A    between atoms: _114  and  _116
REMARK   52  A    between atoms: _116  and  _117
REMARK   53  A    between atoms: _116  and  _119
REMARK   54  A    between atoms: _119  and  _120
REMARK   55  A    between atoms: _125  and  _127
REMARK   56  A    between atoms: _127  and  _128
REMARK   57  A    between atoms: _127  and  _130
REMARK   58  A    between atoms: _130  and  _131
REMARK   59  A    between atoms: _136  and  _137
REMARK   60  A    between atoms: _139  and  _141
REMARK   61  A    between atoms: _141  and  _142
REMARK   62  A    between atoms: _141  and  _144
REMARK   63  A    between atoms: _148  and  _149
REMARK   64  A    between atoms: _154  and  _156
REMARK   65  A    between atoms: _156  and  _157
REMARK   66  A    between atoms: _156  and  _159
REMARK   67  A    between atoms: _159  and  _160
REMARK   68  A    between atoms: _165  and  _166
REMARK   69  A    between atoms: _168  and  _170
REMARK   70  A    between atoms: _170  and  _171
REMARK   71  A    between atoms: _170  and  _173
REMARK   72  A    between atoms: _173  and  _174
REMARK   73  A    between atoms: _177  and  _179
REMARK   74  A    between atoms: _179  and  _180
REMARK   75  A    between atoms: _179  and  _182
REMARK   76  A    between atoms: _182  and  _183
REMARK   77  A    between atoms: _183  and  _184
REMARK   78  A    between atoms: _189  and  _191
REMARK   79  A    between atoms: _191  and  _192
REMARK   80  A    between atoms: _194  and  _196
REMARK   81  A    between atoms: _196  and  _197
REMARK   82  A    between atoms: _196  and  _199
REMARK   83  A    between atoms: _199  and  _200
REMARK   84  A    between atoms: _200  and  _201
REMARK   85  A    between atoms: _201  and  _202
REMARK   86  A    between atoms: _202  and  _203
REMARK   87  A    between atoms: _207  and  _209
REMARK   88  A    between atoms: _209  and  _210
REMARK   89  A    between atoms: _209  and  _212
REMARK   90  A    between atoms: _212  and  _213
REMARK   91  A    between atoms: _223  and  _225
REMARK   92  A    between atoms: _225  and  _226
REMARK   93  A    between atoms: _225  and  _228
REMARK   94  A    between atoms: _228  and  _229
REMARK   95  A    between atoms: _232  and  _234
REMARK   96  A    between atoms: _234  and  _235
REMARK   97  A    between atoms: _234  and  _237
REMARK   98  A    between atoms: _237  and  _238
REMARK   99  A    between atoms: _238  and  _239
REMARK  100  A    between atoms: _239  and  _240
REMARK  101  A    between atoms: _240  and  _241
REMARK  102  A    between atoms: _245  and  _247
REMARK  103  A    between atoms: _247  and  _248
REMARK  104  A    between atoms: _247  and  _250
REMARK  105  A    between atoms: _250  and  _251
REMARK  106  A    between atoms: _257  and  _259
REMARK  107  A    between atoms: _259  and  _260
REMARK  108  A    between atoms: _259  and  _262
REMARK  109  A    between atoms: _262  and  _263
REMARK  110  A    between atoms: _269  and  _271
REMARK  111  A    between atoms: _271  and  _272
REMARK  112  A    between atoms: _271  and  _274
REMARK  113  A    between atoms: _274  and  _275
REMARK  114  A    between atoms: _278  and  _280
REMARK  115  A    between atoms: _280  and  _281
REMARK  116  A    between atoms: _280  and  _283
REMARK  117  A    between atoms: _283  and  _284
REMARK  118  A    between atoms: _286  and  _288
REMARK  119  A    between atoms: _288  and  _289
REMARK  120  A    between atoms: _288  and  _291
REMARK  121  A    between atoms: _291  and  _292
REMARK  122  A    between atoms: _302  and  _304
REMARK  123  A    between atoms: _304  and  _305
REMARK  124  A    between atoms: _307  and  _309
REMARK  125  A    between atoms: _309  and  _310
REMARK  126  A    between atoms: _309  and  _312
REMARK  127  A    between atoms: _312  and  _313
REMARK  128  A    between atoms: _316  and  _318
REMARK  129  A    between atoms: _318  and  _319
REMARK  130  A    between atoms: _318  and  _321
REMARK  131  A    between atoms: _321  and  _322
REMARK  132  A    between atoms: _325  and  _327
REMARK  133  A    between atoms: _327  and  _328
REMARK  134  A    between atoms: _330  and  _332
REMARK  135  A    between atoms: _332  and  _333
REMARK  136  A    between atoms: _332  and  _335
REMARK  137  A    between atoms: _335  and  _336
REMARK  138  A    between atoms: _339  and  _341
REMARK  139  A    between atoms: _341  and  _342
REMARK  140  A    between atoms: _345  and  _347
REMARK  141  A    between atoms: _347  and  _348
REMARK  142  A    between atoms: _347  and  _350
REMARK  143  A    between atoms: _350  and  _351
REMARK  144  A    between atoms: _356  and  _357
REMARK  145  A    between atoms: _359  and  _361
REMARK  146  A    between atoms: _361  and  _362
REMARK  147  A    between atoms: _361  and  _364
REMARK  148  A    between atoms: _364  and  _365
REMARK  149  A    between atoms: _368  and  _370
REMARK  150  A    between atoms: _370  and  _371
REMARK  151  A    between atoms: _374  and  _376
REMARK  152  A    between atoms: _376  and  _377
REMARK  153  A    between atoms: _376  and  _379
REMARK  154  A    between atoms: _379  and  _380
REMARK  155  A    between atoms: _380  and  _381
REMARK  156  A    between atoms: _381  and  _382
REMARK  157  A    between atoms: _391  and  _393
REMARK  158  A    between atoms: _393  and  _394
REMARK  159  A    between atoms: _393  and  _396
REMARK  160  A    between atoms: _396  and  _397
REMARK  161  A    between atoms: _407  and  _409
REMARK  162  A    between atoms: _409  and  _410
REMARK  163  A    between atoms: _409  and  _412
REMARK  164  A    between atoms: _412  and  _413
REMARK  165  A    between atoms: _418  and  _419
REMARK  166  A    between atoms: _421  and  _423
REMARK  167  A    between atoms: _423  and  _424
REMARK  168  A    between atoms: _423  and  _426
REMARK  169  A    between atoms: _426  and  _427
REMARK  170  A    between atoms: _430  and  _432
REMARK  171  A    between atoms: _432  and  _433
REMARK  172  A    between atoms: _432  and  _435
REMARK  173  A    between atoms: _435  and  _436
REMARK  174  A    between atoms: _436  and  _437
REMARK  175  A    between atoms: _437  and  _438
REMARK  176  A    between atoms: _438  and  _439
REMARK  177  A    between atoms: _443  and  _445
REMARK  178  A    between atoms: _445  and  _446
REMARK  179  A    between atoms: _445  and  _448
REMARK  180  A    between atoms: _448  and  _449
REMARK  181  A    between atoms: _452  and  _454
REMARK  182  A    between atoms: _454  and  _455
REMARK  183  A    between atoms: _454  and  _457
REMARK  184  A    between atoms: _460  and  _462
REMARK  185  A    between atoms: _462  and  _463
REMARK  186  A    between atoms: _462  and  _465
REMARK  187  A    between atoms: _465  and  _466
REMARK  188  A    between atoms: _469  and  _471
REMARK  189  A    between atoms: _471  and  _472
REMARK  190  A    between atoms: _471  and  _474
REMARK  191  A    between atoms: _474  and  _475
REMARK  192  A    between atoms: _477  and  _479
REMARK  193  A    between atoms: _479  and  _480
REMARK  194  A    between atoms: _482  and  _484
REMARK  195  A    between atoms: _484  and  _485
REMARK  196  A    between atoms: _484  and  _487
REMARK  197  A    between atoms: _487  and  _488
REMARK  198  A    between atoms: _491  and  _493
REMARK  199  A    between atoms: _493  and  _494
REMARK  200  A    between atoms: _493  and  _496
REMARK  201  A    between atoms: _496  and  _497
REMARK  202  A    between atoms: _500  and  _502
REMARK  203  A    between atoms: _502  and  _503
REMARK  204  A    between atoms: _502  and  _505
REMARK  205  A    between atoms: _505  and  _506
REMARK  206  A    between atoms: _511  and  _513
REMARK  207  A    between atoms: _513  and  _514
REMARK  208  A    between atoms: _513  and  _516
REMARK  209  A    between atoms: _516  and  _517
REMARK  210  A    between atoms: _520  and  _522
REMARK  211  A    between atoms: _522  and  _523
REMARK  212  A    between atoms: _522  and  _525
REMARK  213  A    between atoms: _525  and  _526
REMARK  214  A    between atoms: _526  and  _527
REMARK  215  A    between atoms: _527  and  _528
REMARK  216  A    between atoms: _537  and  _539
REMARK  217  A    between atoms: _539  and  _540
REMARK  218  A    between atoms: _539  and  _542
REMARK  219  A    between atoms: _542  and  _543
REMARK  220  A    between atoms: _546  and  _548
REMARK  221  A    between atoms: _548  and  _549
REMARK  222  A    between atoms: _551  and  _553
REMARK  223  A    between atoms: _553  and  _554
REMARK  224  A    between atoms: _553  and  _556
REMARK  225  A    between atoms: _556  and  _557
REMARK  226  A    between atoms: _557  and  _558
REMARK  227  A    between atoms: _561  and  _563
REMARK  228  A    between atoms: _563  and  _564
REMARK  229  A    between atoms: _563  and  _566
REMARK  230  A    between atoms: _566  and  _567
REMARK  231  A    between atoms: _567  and  _568
REMARK  232  A    between atoms: _568  and  _569
REMARK  233  A    between atoms: _578  and  _580
REMARK  234  A    between atoms: _580  and  _581
REMARK  235  A    between atoms: _580  and  _583
REMARK  236  A    between atoms: _583  and  _584
REMARK  237  A    between atoms: _584  and  _585
REMARK  238  A    between atoms: _585  and  _586
REMARK  239  A    between atoms: _586  and  _587
REMARK  240  A    between atoms: _591  and  _593
REMARK  241  A    between atoms: _593  and  _594
REMARK  242  A    between atoms: _593  and  _596
REMARK  243  A    between atoms: _596  and  _597
REMARK  244  A    between atoms: _603  and  _605
REMARK  245  A    between atoms: _605  and  _606
REMARK  246  A    between atoms: _609  and  _611
REMARK  247  A    between atoms: _611  and  _612
REMARK  248  A    between atoms: _611  and  _614
REMARK  249  A    between atoms: _614  and  _615
REMARK  250  A    between atoms: _618  and  _620
REMARK  251  A    between atoms: _620  and  _621
REMARK  252  A    between atoms: _620  and  _623
REMARK  253  A    between atoms: _623  and  _624
REMARK  254  A    between atoms: _626  and  _628
REMARK  255  A    between atoms: _628  and  _629
REMARK  256  A    between atoms: _628  and  _631
REMARK  257  A    between atoms: _631  and  _632
REMARK  258  A    between atoms: _632  and  _633
REMARK  259  A    between atoms: _638  and  _640
REMARK  260  A    between atoms: _640  and  _641
REMARK  261  A    between atoms: _640  and  _643
REMARK  262  A    between atoms: _643  and  _644
REMARK  263  A    between atoms: _646  and  _648
REMARK  264  A    between atoms: _648  and  _649
REMARK  265  A    between atoms: _648  and  _651
REMARK  266  A    between atoms: _651  and  _652
REMARK  267  A    between atoms: _654  and  _656
REMARK  268  A    between atoms: _656  and  _657
REMARK  269  A    between atoms: _656  and  _659
REMARK  270  A    between atoms: _659  and  _660
REMARK  271  A    between atoms: _663  and  _665
REMARK  272  A    between atoms: _665  and  _666
REMARK  273  A    between atoms: _668  and  _670
REMARK  274  A    between atoms: _670  and  _671
REMARK  275  A    between atoms: _670  and  _673
REMARK  276  A    between atoms: _673  and  _674
REMARK  277  A    between atoms: _677  and  _679
REMARK  278  A    between atoms: _679  and  _680
REMARK  279  A    between atoms: _679  and  _682
REMARK  280  A    between atoms: _685  and  _687
REMARK  281  A    between atoms: _687  and  _688
REMARK  282  A    between atoms: _690  and  _692
REMARK  283  A    between atoms: _692  and  _693
REMARK  284  A    between atoms: _696  and  _698
REMARK  285  A    between atoms: _698  and  _699
REMARK  286  A    between atoms: _698  and  _701
REMARK                            x       y       z     vdW  Elec       q    Type
REMARK                         _______ _______ _______ _____ _____    ______ ____
ROOT
ATOM      1  O   HOH     1       4.848  -2.104   3.010  0.00  0.00    +0.000 OA
ENDROOT
TORSDOF 0
REMARK  Name = ../refined-set-2016/1fkn/1fkn_pocket.pdb
REMARK  286 active torsions:
REMARK  status: ('A' for Active; 'I' for Inactive)
REMARK    1  A    between atoms: _1  and  _3
REMARK    2  A    between atoms: _3  and  _4
REMARK    3  A    between atoms: _3  and  _6
REMARK    4  A    between atoms: _6  and  _7
REMARK    5  A    between atoms: _7  and  _8
REMARK    6  A    between atoms: _8  and  _9
REMARK    7  A    between atoms: _9  and  _10
REMARK    8  A    between atoms: _14  and  _16
REMARK    9  A    between atoms: _16  and  _17
REMARK   10  A    between atoms: _16  and  _19
REMARK   11  A    between atoms: _19  and  _20
REMARK   12  A    between atoms: _22  and  _24
REMARK   13  A    between atoms: _24  and  _25
REMARK   14  A    between atoms: _27  and  _29
REMARK   15  A    between atoms: _29  and  _30
REMARK   16  A    between atoms: _29  and  _32
REMARK   17  A    between atoms: _32  and  _33
REMARK   18  A    between atoms: _33  and  _34
REMARK   19  A    between atoms: _39  and  _41
REMARK   20  A    between atoms: _41  and  _42
REMARK   21  A    between atoms: _44  and  _46
REMARK   22  A    between atoms: _46  and  _47
REMARK   23  A    between atoms: _46  and  _49
REMARK   24  A    between atoms: _49  and  _50
REMARK   25  A    between atoms: _55  and  _56
REMARK   26  A    between atoms: _58  and  _60
REMARK   27  A    between atoms: _60  and  _61
REMARK   28  A    between atoms: _60  and  _63
REMARK   29  A    between atoms: _63  and  _64
REMARK   30  A    between atoms: _67  and  _69
REMARK   31  A    between atoms: _69  and  _70
REMARK   32  A    between atoms: _69  and  _72
REMARK   33  A    between atoms: _75  and  _77
REMARK   34  A    between atoms: _77  and  _78
REMARK   35  A    between atoms: _77  and  _80
REMARK   36  A    between atoms: _80  and  _81
REMARK   37  A    between atoms: _84  and  _86
REMARK   38  A    between atoms: _86  and  _87
REMARK   39  A    between atoms: _86  and  _89
REMARK   40  A    between atoms: _89  and  _90
REMARK   41  A    between atoms: _93  and  _95
REMARK   42  A    between atoms: _95  and  _96
REMARK   43  A    between atoms: _98  and  _100
REMARK   44  A    between atoms: _100  and  _101
REMARK   45  A    between atoms: _100  and  _103
REMARK   46  A    between atoms: _103  and  _104
REMARK   47  A    between atoms: _106  and  _108
REMARK   48  A    between atoms: _108  and  _109
REMARK   49  A    between atoms: _108  and  _111
REMARK   50  A    between atoms: _111  and  _112
REMARK   51  A    between atoms: _114  and  _116
REMARK   52  A    between atoms: _116  and  _117
REMARK   53  A    between atoms: _116  and  _119
REMARK   54  A    between atoms: _119  and  _120
REMARK   55  A    between atoms: _125  and  _127
REMARK   56  A    between atoms: _127  and  _128
REMARK   57  A    between atoms: _127  and  _130
REMARK   58  A    between atoms: _130  and  _131
REMARK   59  A    between atoms: _136  and  _137
REMARK   60  A    between atoms: _139  and  _141
REMARK   61  A    between atoms: _141  and  _142
REMARK   62  A    between atoms: _141  and  _144
REMARK   63  A    between atoms: _148  and  _149
REMARK   64  A    between atoms: _154  and  _156
REMARK   65  A    between atoms: _156  and  _157
REMARK   66  A    between atoms: _156  and  _159
REMARK   67  A    between atoms: _159  and  _160
REMARK   68  A    between atoms: _165  and  _166
REMARK   69  A    between atoms: _168  and  _170
REMARK   70  A    between atoms: _170  and  _171
REMARK   71  A    between atoms: _170  and  _173
REMARK   72  A    between atoms: _173  and  _174
REMARK   73  A    between atoms: _177  and  _179
REMARK   74  A    between atoms: _179  and  _180
REMARK   75  A    between atoms: _179  and  _182
REMARK   76  A    between atoms: _182  and  _183
REMARK   77  A    between atoms: _183  and  _184
REMARK   78  A    between atoms: _189  and  _191
REMARK   79  A    between atoms: _191  and  _192
REMARK   80  A    between atoms: _194  and  _196
REMARK   81  A    between atoms: _196  and  _197
REMARK   82  A    between atoms: _196  and  _199
REMARK   83  A    between atoms: _199  and  _200
REMARK   84  A    between atoms: _200  and  _201
REMARK   85  A    between atoms: _201  and  _202
REMARK   86  A    between atoms: _202  and  _203
REMARK   87  A    between atoms: _207  and  _209
REMARK   88  A    between atoms: _209  and  _210
REMARK   89  A    between atoms: _209  and  _212
REMARK   90  A    between atoms: _212  and  _213
REMARK   91  A    between atoms: _223  and  _225
REMARK   92  A    between atoms: _225  and  _226
REMARK   93  A    between atoms: _225  and  _228
REMARK   94  A    between atoms: _228  and  _229
REMARK   95  A    between atoms: _232  and  _234
REMARK   96  A    between atoms: _234  and  _235
REMARK   97  A    between atoms: _234  and  _237
REMARK   98  A    between atoms: _237  and  _238
REMARK   99  A    between atoms: _238  and  _239
REMARK  100  A    between atoms: _239  and  _240
REMARK  101  A    between atoms: _240  and  _241
REMARK  102  A    between atoms: _245  and  _247
REMARK  103  A    between atoms: _247  and  _248
REMARK  104  A    between atoms: _247  and  _250
REMARK  105  A    between atoms: _250  and  _251
REMARK  106  A    between atoms: _257  and  _259
REMARK  107  A    between atoms: _259  and  _260
REMARK  108  A    between atoms: _259  and  _262
REMARK  109  A    between atoms: _262  and  _263
REMARK  110  A    between atoms: _269  and  _271
REMARK  111  A    between atoms: _271  and  _272
REMARK  112  A    between atoms: _271  and  _274
REMARK  113  A    between atoms: _274  and  _275
REMARK  114  A    between atoms: _278  and  _280
REMARK  115  A    between atoms: _280  and  _281
REMARK  116  A    between atoms: _280  and  _283
REMARK  117  A    between atoms: _283  and  _284
REMARK  118  A    between atoms: _286  and  _288
REMARK  119  A    between atoms: _288  and  _289
REMARK  120  A    between atoms: _288  and  _291
REMARK  121  A    between atoms: _291  and  _292
REMARK  122  A    between atoms: _302  and  _304
REMARK  123  A    between atoms: _304  and  _305
REMARK  124  A    between atoms: _307  and  _309
REMARK  125  A    between atoms: _309  and  _310
REMARK  126  A    between atoms: _309  and  _312
REMARK  127  A    between atoms: _312  and  _313
REMARK  128  A    between atoms: _316  and  _318
REMARK  129  A    between atoms: _318  and  _319
REMARK  130  A    between atoms: _318  and  _321
REMARK  131  A    between atoms: _321  and  _322
REMARK  132  A    between atoms: _325  and  _327
REMARK  133  A    between atoms: _327  and  _328
REMARK  134  A    between atoms: _330  and  _332
REMARK  135  A    between atoms: _332  and  _333
REMARK  136  A    between atoms: _332  and  _335
REMARK  137  A    between atoms: _335  and  _336
REMARK  138  A    between atoms: _339  and  _341
REMARK  139  A    between atoms: _341  and  _342
REMARK  140  A    between atoms: _345  and  _347
REMARK  141  A    between atoms: _347  and  _348
REMARK  142  A    between atoms: _347  and  _350
REMARK  143  A    between atoms: _350  and  _351
REMARK  144  A    between atoms: _356  and  _357
REMARK  145  A    between atoms: _359  and  _361
REMARK  146  A    between atoms: _361  and  _362
REMARK  147  A    between atoms: _361  and  _364
REMARK  148  A    between atoms: _364  and  _365
REMARK  149  A    between atoms: _368  and  _370
REMARK  150  A    between atoms: _370  and  _371
REMARK  151  A    between atoms: _374  and  _376
REMARK  152  A    between atoms: _376  and  _377
REMARK  153  A    between atoms: _376  and  _379
REMARK  154  A    between atoms: _379  and  _380
REMARK  155  A    between atoms: _380  and  _381
REMARK  156  A    between atoms: _381  and  _382
REMARK  157  A    between atoms: _391  and  _393
REMARK  158  A    between atoms: _393  and  _394
REMARK  159  A    between atoms: _393  and  _396
REMARK  160  A    between atoms: _396  and  _397
REMARK  161  A    between atoms: _407  and  _409
REMARK  162  A    between atoms: _409  and  _410
REMARK  163  A    between atoms: _409  and  _412
REMARK  164  A    between atoms: _412  and  _413
REMARK  165  A    between atoms: _418  and  _419
REMARK  166  A    between atoms: _421  and  _423
REMARK  167  A    between atoms: _423  and  _424
REMARK  168  A    between atoms: _423  and  _426
REMARK  169  A    between atoms: _426  and  _427
REMARK  170  A    between atoms: _430  and  _432
REMARK  171  A    between atoms: _432  and  _433
REMARK  172  A    between atoms: _432  and  _435
REMARK  173  A    between atoms: _435  and  _436
REMARK  174  A    between atoms: _436  and  _437
REMARK  175  A    between atoms: _437  and  _438
REMARK  176  A    between atoms: _438  and  _439
REMARK  177  A    between atoms: _443  and  _445
REMARK  178  A    between atoms: _445  and  _446
REMARK  179  A    between atoms: _445  and  _448
REMARK  180  A    between atoms: _448  and  _449
REMARK  181  A    between atoms: _452  and  _454
REMARK  182  A    between atoms: _454  and  _455
REMARK  183  A    between atoms: _454  and  _457
REMARK  184  A    between atoms: _460  and  _462
REMARK  185  A    between atoms: _462  and  _463
REMARK  186  A    between atoms: _462  and  _465
REMARK  187  A    between atoms: _465  and  _466
REMARK  188  A    between atoms: _469  and  _471
REMARK  189  A    between atoms: _471  and  _472
REMARK  190  A    between atoms: _471  and  _474
REMARK  191  A    between atoms: _474  and  _475
REMARK  192  A    between atoms: _477  and  _479
REMARK  193  A    between atoms: _479  and  _480
REMARK  194  A    between atoms: _482  and  _484
REMARK  195  A    between atoms: _484  and  _485
REMARK  196  A    between atoms: _484  and  _487
REMARK  197  A    between atoms: _487  and  _488
REMARK  198  A    between atoms: _491  and  _493
REMARK  199  A    between atoms: _493  and  _494
REMARK  200  A    between atoms: _493  and  _496
REMARK  201  A    between atoms: _496  and  _497
REMARK  202  A    between atoms: _500  and  _502
REMARK  203  A    between atoms: _502  and  _503
REMARK  204  A    between atoms: _502  and  _505
REMARK  205  A    between atoms: _505  and  _506
REMARK  206  A    between atoms: _511  and  _513
REMARK  207  A    between atoms: _513  and  _514
REMARK  208  A    between atoms: _513  and  _516
REMARK  209  A    between atoms: _516  and  _517
REMARK  210  A    between atoms: _520  and  _522
REMARK  211  A    between atoms: _522  and  _523
REMARK  212  A    between atoms: _522  and  _525
REMARK  213  A    between atoms: _525  and  _526
REMARK  214  A    between atoms: _526  and  _527
REMARK  215  A    between atoms: _527  and  _528
REMARK  216  A    between atoms: _537  and  _539
REMARK  217  A    between atoms: _539  and  _540
REMARK  218  A    between atoms: _539  and  _542
REMARK  219  A    between atoms: _542  and  _543
REMARK  220  A    between atoms: _546  and  _548
REMARK  221  A    between atoms: _548  and  _549
REMARK  222  A    between atoms: _551  and  _553
REMARK  223  A    between atoms: _553  and  _554
REMARK  224  A    between atoms: _553  and  _556
REMARK  225  A    between atoms: _556  and  _557
REMARK  226  A    between atoms: _557  and  _558
REMARK  227  A    between atoms: _561  and  _563
REMARK  228  A    between atoms: _563  and  _564
REMARK  229  A    between atoms: _563  and  _566
REMARK  230  A    between atoms: _566  and  _567
REMARK  231  A    between atoms: _567  and  _568
REMARK  232  A    between atoms: _568  and  _569
REMARK  233  A    between atoms: _578  and  _580
REMARK  234  A    between atoms: _580  and  _581
REMARK  235  A    between atoms: _580  and  _583
REMARK  236  A    between atoms: _583  and  _584
REMARK  237  A    between atoms: _584  and  _585
REMARK  238  A    between atoms: _585  and  _586
REMARK  239  A    between atoms: _586  and  _587
REMARK  240  A    between atoms: _591  and  _593
REMARK  241  A    between atoms: _593  and  _594
REMARK  242  A    between atoms: _593  and  _596
REMARK  243  A    between atoms: _596  and  _597
REMARK  244  A    between atoms: _603  and  _605
REMARK  245  A    between atoms: _605  and  _606
REMARK  246  A    between atoms: _609  and  _611
REMARK  247  A    between atoms: _611  and  _612
REMARK  248  A    between atoms: _611  and  _614
REMARK  249  A    between atoms: _614  and  _615
REMARK  250  A    between atoms: _618  and  _620
REMARK  251  A    between atoms: _620  and  _621
REMARK  252  A    between atoms: _620  and  _623
REMARK  253  A    between atoms: _623  and  _624
REMARK  254  A    between atoms: _626  and  _628
REMARK  255  A    between atoms: _628  and  _629
REMARK  256  A    between atoms: _628  and  _631
REMARK  257  A    between atoms: _631  and  _632
REMARK  258  A    between atoms: _632  and  _633
REMARK  259  A    between atoms: _638  and  _640
REMARK  260  A    between atoms: _640  and  _641
REMARK  261  A    between atoms: _640  and  _643
REMARK  262  A    between atoms: _643  and  _644
REMARK  263  A    between atoms: _646  and  _648
REMARK  264  A    between atoms: _648  and  _649
REMARK  265  A    between atoms: _648  and  _651
REMARK  266  A    between atoms: _651  and  _652
REMARK  267  A    between atoms: _654  and  _656
REMARK  268  A    between atoms: _656  and  _657
REMARK  269  A    between atoms: _656  and  _659
REMARK  270  A    between atoms: _659  and  _660
REMARK  271  A    between atoms: _663  and  _665
REMARK  272  A    between atoms: _665  and  _666
REMARK  273  A    between atoms: _668  and  _670
REMARK  274  A    between atoms: _670  and  _671
REMARK  275  A    between atoms: _670  and  _673
REMARK  276  A    between atoms: _673  and  _674
REMARK  277  A    between atoms: _677  and  _679
REMARK  278  A    between atoms: _679  and  _680
REMARK  279  A    between atoms: _679  and  _682
REMARK  280  A    between atoms: _685  and  _687
REMARK  281  A    between atoms: _687  and  _688
REMARK  282  A    between atoms: _690  and  _692
REMARK  283  A    between atoms: _692  and  _693
REMARK  284  A    between atoms: _696  and  _698
REMARK  285  A    between atoms: _698  and  _699
REMARK  286  A    between atoms: _698  and  _701
REMARK                            x       y       z     vdW  Elec       q    Type
REMARK                         _______ _______ _______ _____ _____    ______ ____
ROOT
ATOM      1  O   HOH     1      13.929 -12.954   1.960  0.00  0.00    +0.000 OA
ENDROOT
TORSDOF 0
REMARK  Name = ../refined-set-2016/1fkn/1fkn_pocket.pdb
REMARK  286 active torsions:
REMARK  status: ('A' for Active; 'I' for Inactive)
REMARK    1  A    between atoms: _1  and  _3
REMARK    2  A    between atoms: _3  and  _4
REMARK    3  A    between atoms: _3  and  _6
REMARK    4  A    between atoms: _6  and  _7
REMARK    5  A    between atoms: _7  and  _8
REMARK    6  A    between atoms: _8  and  _9
REMARK    7  A    between atoms: _9  and  _10
REMARK    8  A    between atoms: _14  and  _16
REMARK    9  A    between atoms: _16  and  _17
REMARK   10  A    between atoms: _16  and  _19
REMARK   11  A    between atoms: _19  and  _20
REMARK   12  A    between atoms: _22  and  _24
REMARK   13  A    between atoms: _24  and  _25
REMARK   14  A    between atoms: _27  and  _29
REMARK   15  A    between atoms: _29  and  _30
REMARK   16  A    between atoms: _29  and  _32
REMARK   17  A    between atoms: _32  and  _33
REMARK   18  A    between atoms: _33  and  _34
REMARK   19  A    between atoms: _39  and  _41
REMARK   20  A    between atoms: _41  and  _42
REMARK   21  A    between atoms: _44  and  _46
REMARK   22  A    between atoms: _46  and  _47
REMARK   23  A    between atoms: _46  and  _49
REMARK   24  A    between atoms: _49  and  _50
REMARK   25  A    between atoms: _55  and  _56
REMARK   26  A    between atoms: _58  and  _60
REMARK   27  A    between atoms: _60  and  _61
REMARK   28  A    between atoms: _60  and  _63
REMARK   29  A    between atoms: _63  and  _64
REMARK   30  A    between atoms: _67  and  _69
REMARK   31  A    between atoms: _69  and  _70
REMARK   32  A    between atoms: _69  and  _72
REMARK   33  A    between atoms: _75  and  _77
REMARK   34  A    between atoms: _77  and  _78
REMARK   35  A    between atoms: _77  and  _80
REMARK   36  A    between atoms: _80  and  _81
REMARK   37  A    between atoms: _84  and  _86
REMARK   38  A    between atoms: _86  and  _87
REMARK   39  A    between atoms: _86  and  _89
REMARK   40  A    between atoms: _89  and  _90
REMARK   41  A    between atoms: _93  and  _95
REMARK   42  A    between atoms: _95  and  _96
REMARK   43  A    between atoms: _98  and  _100
REMARK   44  A    between atoms: _100  and  _101
REMARK   45  A    between atoms: _100  and  _103
REMARK   46  A    between atoms: _103  and  _104
REMARK   47  A    between atoms: _106  and  _108
REMARK   48  A    between atoms: _108  and  _109
REMARK   49  A    between atoms: _108  and  _111
REMARK   50  A    between atoms: _111  and  _112
REMARK   51  A    between atoms: _114  and  _116
REMARK   52  A    between atoms: _116  and  _117
REMARK   53  A    between atoms: _116  and  _119
REMARK   54  A    between atoms: _119  and  _120
REMARK   55  A    between atoms: _125  and  _127
REMARK   56  A    between atoms: _127  and  _128
REMARK   57  A    between atoms: _127  and  _130
REMARK   58  A    between atoms: _130  and  _131
REMARK   59  A    between atoms: _136  and  _137
REMARK   60  A    between atoms: _139  and  _141
REMARK   61  A    between atoms: _141  and  _142
REMARK   62  A    between atoms: _141  and  _144
REMARK   63  A    between atoms: _148  and  _149
REMARK   64  A    between atoms: _154  and  _156
REMARK   65  A    between atoms: _156  and  _157
REMARK   66  A    between atoms: _156  and  _159
REMARK   67  A    between atoms: _159  and  _160
REMARK   68  A    between atoms: _165  and  _166
REMARK   69  A    between atoms: _168  and  _170
REMARK   70  A    between atoms: _170  and  _171
REMARK   71  A    between atoms: _170  and  _173
REMARK   72  A    between atoms: _173  and  _174
REMARK   73  A    between atoms: _177  and  _179
REMARK   74  A    between atoms: _179  and  _180
REMARK   75  A    between atoms: _179  and  _182
REMARK   76  A    between atoms: _182  and  _183
REMARK   77  A    between atoms: _183  and  _184
REMARK   78  A    between atoms: _189  and  _191
REMARK   79  A    between atoms: _191  and  _192
REMARK   80  A    between atoms: _194  and  _196
REMARK   81  A    between atoms: _196  and  _197
REMARK   82  A    between atoms: _196  and  _199
REMARK   83  A    between atoms: _199  and  _200
REMARK   84  A    between atoms: _200  and  _201
REMARK   85  A    between atoms: _201  and  _202
REMARK   86  A    between atoms: _202  and  _203
REMARK   87  A    between atoms: _207  and  _209
REMARK   88  A    between atoms: _209  and  _210
REMARK   89  A    between atoms: _209  and  _212
REMARK   90  A    between atoms: _212  and  _213
REMARK   91  A    between atoms: _223  and  _225
REMARK   92  A    between atoms: _225  and  _226
REMARK   93  A    between atoms: _225  and  _228
REMARK   94  A    between atoms: _228  and  _229
REMARK   95  A    between atoms: _232  and  _234
REMARK   96  A    between atoms: _234  and  _235
REMARK   97  A    between atoms: _234  and  _237
REMARK   98  A    between atoms: _237  and  _238
REMARK   99  A    between atoms: _238  and  _239
REMARK  100  A    between atoms: _239  and  _240
REMARK  101  A    between atoms: _240  and  _241
REMARK  102  A    between atoms: _245  and  _247
REMARK  103  A    between atoms: _247  and  _248
REMARK  104  A    between atoms: _247  and  _250
REMARK  105  A    between atoms: _250  and  _251
REMARK  106  A    between atoms: _257  and  _259
REMARK  107  A    between atoms: _259  and  _260
REMARK  108  A    between atoms: _259  and  _262
REMARK  109  A    between atoms: _262  and  _263
REMARK  110  A    between atoms: _269  and  _271
REMARK  111  A    between atoms: _271  and  _272
REMARK  112  A    between atoms: _271  and  _274
REMARK  113  A    between atoms: _274  and  _275
REMARK  114  A    between atoms: _278  and  _280
REMARK  115  A    between atoms: _280  and  _281
REMARK  116  A    between atoms: _280  and  _283
REMARK  117  A    between atoms: _283  and  _284
REMARK  118  A    between atoms: _286  and  _288
REMARK  119  A    between atoms: _288  and  _289
REMARK  120  A    between atoms: _288  and  _291
REMARK  121  A    between atoms: _291  and  _292
REMARK  122  A    between atoms: _302  and  _304
REMARK  123  A    between atoms: _304  and  _305
REMARK  124  A    between atoms: _307  and  _309
REMARK  125  A    between atoms: _309  and  _310
REMARK  126  A    between atoms: _309  and  _312
REMARK  127  A    between atoms: _312  and  _313
REMARK  128  A    between atoms: _316  and  _318
REMARK  129  A    between atoms: _318  and  _319
REMARK  130  A    between atoms: _318  and  _321
REMARK  131  A    between atoms: _321  and  _322
REMARK  132  A    between atoms: _325  and  _327
REMARK  133  A    between atoms: _327  and  _328
REMARK  134  A    between atoms: _330  and  _332
REMARK  135  A    between atoms: _332  and  _333
REMARK  136  A    between atoms: _332  and  _335
REMARK  137  A    between atoms: _335  and  _336
REMARK  138  A    between atoms: _339  and  _341
REMARK  139  A    between atoms: _341  and  _342
REMARK  140  A    between atoms: _345  and  _347
REMARK  141  A    between atoms: _347  and  _348
REMARK  142  A    between atoms: _347  and  _350
REMARK  143  A    between atoms: _350  and  _351
REMARK  144  A    between atoms: _356  and  _357
REMARK  145  A    between atoms: _359  and  _361
REMARK  146  A    between atoms: _361  and  _362
REMARK  147  A    between atoms: _361  and  _364
REMARK  148  A    between atoms: _364  and  _365
REMARK  149  A    between atoms: _368  and  _370
REMARK  150  A    between atoms: _370  and  _371
REMARK  151  A    between atoms: _374  and  _376
REMARK  152  A    between atoms: _376  and  _377
REMARK  153  A    between atoms: _376  and  _379
REMARK  154  A    between atoms: _379  and  _380
REMARK  155  A    between atoms: _380  and  _381
REMARK  156  A    between atoms: _381  and  _382
REMARK  157  A    between atoms: _391  and  _393
REMARK  158  A    between atoms: _393  and  _394
REMARK  159  A    between atoms: _393  and  _396
REMARK  160  A    between atoms: _396  and  _397
REMARK  161  A    between atoms: _407  and  _409
REMARK  162  A    between atoms: _409  and  _410
REMARK  163  A    between atoms: _409  and  _412
REMARK  164  A    between atoms: _412  and  _413
REMARK  165  A    between atoms: _418  and  _419
REMARK  166  A    between atoms: _421  and  _423
REMARK  167  A    between atoms: _423  and  _424
REMARK  168  A    between atoms: _423  and  _426
REMARK  169  A    between atoms: _426  and  _427
REMARK  170  A    between atoms: _430  and  _432
REMARK  171  A    between atoms: _432  and  _433
REMARK  172  A    between atoms: _432  and  _435
REMARK  173  A    between atoms: _435  and  _436
REMARK  174  A    between atoms: _436  and  _437
REMARK  175  A    between atoms: _437  and  _438
REMARK  176  A    between atoms: _438  and  _439
REMARK  177  A    between atoms: _443  and  _445
REMARK  178  A    between atoms: _445  and  _446
REMARK  179  A    between atoms: _445  and  _448
REMARK  180  A    between atoms: _448  and  _449
REMARK  181  A    between atoms: _452  and  _454
REMARK  182  A    between atoms: _454  and  _455
REMARK  183  A    between atoms: _454  and  _457
REMARK  184  A    between atoms: _460  and  _462
REMARK  185  A    between atoms: _462  and  _463
REMARK  186  A    between atoms: _462  and  _465
REMARK  187  A    between atoms: _465  and  _466
REMARK  188  A    between atoms: _469  and  _471
REMARK  189  A    between atoms: _471  and  _472
REMARK  190  A    between atoms: _471  and  _474
REMARK  191  A    between atoms: _474  and  _475
REMARK  192  A    between atoms: _477  and  _479
REMARK  193  A    between atoms: _479  and  _480
REMARK  194  A    between atoms: _482  and  _484
REMARK  195  A    between atoms: _484  and  _485
REMARK  196  A    between atoms: _484  and  _487
REMARK  197  A    between atoms: _487  and  _488
REMARK  198  A    between atoms: _491  and  _493
REMARK  199  A    between atoms: _493  and  _494
REMARK  200  A    between atoms: _493  and  _496
REMARK  201  A    between atoms: _496  and  _497
REMARK  202  A    between atoms: _500  and  _502
REMARK  203  A    between atoms: _502  and  _503
REMARK  204  A    between atoms: _502  and  _505
REMARK  205  A    between atoms: _505  and  _506
REMARK  206  A    between atoms: _511  and  _513
REMARK  207  A    between atoms: _513  and  _514
REMARK  208  A    between atoms: _513  and  _516
REMARK  209  A    between atoms: _516  and  _517
REMARK  210  A    between atoms: _520  and  _522
REMARK  211  A    between atoms: _522  and  _523
REMARK  212  A    between atoms: _522  and  _525
REMARK  213  A    between atoms: _525  and  _526
REMARK  214  A    between atoms: _526  and  _527
REMARK  215  A    between atoms: _527  and  _528
REMARK  216  A    between atoms: _537  and  _539
REMARK  217  A    between atoms: _539  and  _540
REMARK  218  A    between atoms: _539  and  _542
REMARK  219  A    between atoms: _542  and  _543
REMARK  220  A    between atoms: _546  and  _548
REMARK  221  A    between atoms: _548  and  _549
REMARK  222  A    between atoms: _551  and  _553
REMARK  223  A    between atoms: _553  and  _554
REMARK  224  A    between atoms: _553  and  _556
REMARK  225  A    between atoms: _556  and  _557
REMARK  226  A    between atoms: _557  and  _558
REMARK  227  A    between atoms: _561  and  _563
REMARK  228  A    between atoms: _563  and  _564
REMARK  229  A    between atoms: _563  and  _566
REMARK  230  A    between atoms: _566  and  _567
REMARK  231  A    between atoms: _567  and  _568
REMARK  232  A    between atoms: _568  and  _569
REMARK  233  A    between atoms: _578  and  _580
REMARK  234  A    between atoms: _580  and  _581
REMARK  235  A    between atoms: _580  and  _583
REMARK  236  A    between atoms: _583  and  _584
REMARK  237  A    between atoms: _584  and  _585
REMARK  238  A    between atoms: _585  and  _586
REMARK  239  A    between atoms: _586  and  _587
REMARK  240  A    between atoms: _591  and  _593
REMARK  241  A    between atoms: _593  and  _594
REMARK  242  A    between atoms: _593  and  _596
REMARK  243  A    between atoms: _596  and  _597
REMARK  244  A    between atoms: _603  and  _605
REMARK  245  A    between atoms: _605  and  _606
REMARK  246  A    between atoms: _609  and  _611
REMARK  247  A    between atoms: _611  and  _612
REMARK  248  A    between atoms: _611  and  _614
REMARK  249  A    between atoms: _614  and  _615
REMARK  250  A    between atoms: _618  and  _620
REMARK  251  A    between atoms: _620  and  _621
REMARK  252  A    between atoms: _620  and  _623
REMARK  253  A    between atoms: _623  and  _624
REMARK  254  A    between atoms: _626  and  _628
REMARK  255  A    between atoms: _628  and  _629
REMARK  256  A    between atoms: _628  and  _631
REMARK  257  A    between atoms: _631  and  _632
REMARK  258  A    between atoms: _632  and  _633
REMARK  259  A    between atoms: _638  and  _640
REMARK  260  A    between atoms: _640  and  _641
REMARK  261  A    between atoms: _640  and  _643
REMARK  262  A    between atoms: _643  and  _644
REMARK  263  A    between atoms: _646  and  _648
REMARK  264  A    between atoms: _648  and  _649
REMARK  265  A    between atoms: _648  and  _651
REMARK  266  A    between atoms: _651  and  _652
REMARK  267  A    between atoms: _654  and  _656
REMARK  268  A    between atoms: _656  and  _657
REMARK  269  A    between atoms: _656  and  _659
REMARK  270  A    between atoms: _659  and  _660
REMARK  271  A    between atoms: _663  and  _665
REMARK  272  A    between atoms: _665  and  _666
REMARK  273  A    between atoms: _668  and  _670
REMARK  274  A    between atoms: _670  and  _671
REMARK  275  A    between atoms: _670  and  _673
REMARK  276  A    between atoms: _673  and  _674
REMARK  277  A    between atoms: _677  and  _679
REMARK  278  A    between atoms: _679  and  _680
REMARK  279  A    between atoms: _679  and  _682
REMARK  280  A    between atoms: _685  and  _687
REMARK  281  A    between atoms: _687  and  _688
REMARK  282  A    between atoms: _690  and  _692
REMARK  283  A    between atoms: _692  and  _693
REMARK  284  A    between atoms: _696  and  _698
REMARK  285  A    between atoms: _698  and  _699
REMARK  286  A    between atoms: _698  and  _701
REMARK                            x       y       z     vdW  Elec       q    Type
REMARK                         _______ _______ _______ _____ _____    ______ ____
ROOT
ATOM      1  O   HOH     1       2.952  -3.516   1.319  0.00  0.00    +0.000 OA
ENDROOT
TORSDOF 0
REMARK  Name = ../refined-set-2016/1fkn/1fkn_pocket.pdb
REMARK  286 active torsions:
REMARK  status: ('A' for Active; 'I' for Inactive)
REMARK    1  A    between atoms: _1  and  _3
REMARK    2  A    between atoms: _3  and  _4
REMARK    3  A    between atoms: _3  and  _6
REMARK    4  A    between atoms: _6  and  _7
REMARK    5  A    between atoms: _7  and  _8
REMARK    6  A    between atoms: _8  and  _9
REMARK    7  A    between atoms: _9  and  _10
REMARK    8  A    between atoms: _14  and  _16
REMARK    9  A    between atoms: _16  and  _17
REMARK   10  A    between atoms: _16  and  _19
REMARK   11  A    between atoms: _19  and  _20
REMARK   12  A    between atoms: _22  and  _24
REMARK   13  A    between atoms: _24  and  _25
REMARK   14  A    between atoms: _27  and  _29
REMARK   15  A    between atoms: _29  and  _30
REMARK   16  A    between atoms: _29  and  _32
REMARK   17  A    between atoms: _32  and  _33
REMARK   18  A    between atoms: _33  and  _34
REMARK   19  A    between atoms: _39  and  _41
REMARK   20  A    between atoms: _41  and  _42
REMARK   21  A    between atoms: _44  and  _46
REMARK   22  A    between atoms: _46  and  _47
REMARK   23  A    between atoms: _46  and  _49
REMARK   24  A    between atoms: _49  and  _50
REMARK   25  A    between atoms: _55  and  _56
REMARK   26  A    between atoms: _58  and  _60
REMARK   27  A    between atoms: _60  and  _61
REMARK   28  A    between atoms: _60  and  _63
REMARK   29  A    between atoms: _63  and  _64
REMARK   30  A    between atoms: _67  and  _69
REMARK   31  A    between atoms: _69  and  _70
REMARK   32  A    between atoms: _69  and  _72
REMARK   33  A    between atoms: _75  and  _77
REMARK   34  A    between atoms: _77  and  _78
REMARK   35  A    between atoms: _77  and  _80
REMARK   36  A    between atoms: _80  and  _81
REMARK   37  A    between atoms: _84  and  _86
REMARK   38  A    between atoms: _86  and  _87
REMARK   39  A    between atoms: _86  and  _89
REMARK   40  A    between atoms: _89  and  _90
REMARK   41  A    between atoms: _93  and  _95
REMARK   42  A    between atoms: _95  and  _96
REMARK   43  A    between atoms: _98  and  _100
REMARK   44  A    between atoms: _100  and  _101
REMARK   45  A    between atoms: _100  and  _103
REMARK   46  A    between atoms: _103  and  _104
REMARK   47  A    between atoms: _106  and  _108
REMARK   48  A    between atoms: _108  and  _109
REMARK   49  A    between atoms: _108  and  _111
REMARK   50  A    between atoms: _111  and  _112
REMARK   51  A    between atoms: _114  and  _116
REMARK   52  A    between atoms: _116  and  _117
REMARK   53  A    between atoms: _116  and  _119
REMARK   54  A    between atoms: _119  and  _120
REMARK   55  A    between atoms: _125  and  _127
REMARK   56  A    between atoms: _127  and  _128
REMARK   57  A    between atoms: _127  and  _130
REMARK   58  A    between atoms: _130  and  _131
REMARK   59  A    between atoms: _136  and  _137
REMARK   60  A    between atoms: _139  and  _141
REMARK   61  A    between atoms: _141  and  _142
REMARK   62  A    between atoms: _141  and  _144
REMARK   63  A    between atoms: _148  and  _149
REMARK   64  A    between atoms: _154  and  _156
REMARK   65  A    between atoms: _156  and  _157
REMARK   66  A    between atoms: _156  and  _159
REMARK   67  A    between atoms: _159  and  _160
REMARK   68  A    between atoms: _165  and  _166
REMARK   69  A    between atoms: _168  and  _170
REMARK   70  A    between atoms: _170  and  _171
REMARK   71  A    between atoms: _170  and  _173
REMARK   72  A    between atoms: _173  and  _174
REMARK   73  A    between atoms: _177  and  _179
REMARK   74  A    between atoms: _179  and  _180
REMARK   75  A    between atoms: _179  and  _182
REMARK   76  A    between atoms: _182  and  _183
REMARK   77  A    between atoms: _183  and  _184
REMARK   78  A    between atoms: _189  and  _191
REMARK   79  A    between atoms: _191  and  _192
REMARK   80  A    between atoms: _194  and  _196
REMARK   81  A    between atoms: _196  and  _197
REMARK   82  A    between atoms: _196  and  _199
REMARK   83  A    between atoms: _199  and  _200
REMARK   84  A    between atoms: _200  and  _201
REMARK   85  A    between atoms: _201  and  _202
REMARK   86  A    between atoms: _202  and  _203
REMARK   87  A    between atoms: _207  and  _209
REMARK   88  A    between atoms: _209  and  _210
REMARK   89  A    between atoms: _209  and  _212
REMARK   90  A    between atoms: _212  and  _213
REMARK   91  A    between atoms: _223  and  _225
REMARK   92  A    between atoms: _225  and  _226
REMARK   93  A    between atoms: _225  and  _228
REMARK   94  A    between atoms: _228  and  _229
REMARK   95  A    between atoms: _232  and  _234
REMARK   96  A    between atoms: _234  and  _235
REMARK   97  A    between atoms: _234  and  _237
REMARK   98  A    between atoms: _237  and  _238
REMARK   99  A    between atoms: _238  and  _239
REMARK  100  A    between atoms: _239  and  _240
REMARK  101  A    between atoms: _240  and  _241
REMARK  102  A    between atoms: _245  and  _247
REMARK  103  A    between atoms: _247  and  _248
REMARK  104  A    between atoms: _247  and  _250
REMARK  105  A    between atoms: _250  and  _251
REMARK  106  A    between atoms: _257  and  _259
REMARK  107  A    between atoms: _259  and  _260
REMARK  108  A    between atoms: _259  and  _262
REMARK  109  A    between atoms: _262  and  _263
REMARK  110  A    between atoms: _269  and  _271
REMARK  111  A    between atoms: _271  and  _272
REMARK  112  A    between atoms: _271  and  _274
REMARK  113  A    between atoms: _274  and  _275
REMARK  114  A    between atoms: _278  and  _280
REMARK  115  A    between atoms: _280  and  _281
REMARK  116  A    between atoms: _280  and  _283
REMARK  117  A    between atoms: _283  and  _284
REMARK  118  A    between atoms: _286  and  _288
REMARK  119  A    between atoms: _288  and  _289
REMARK  120  A    between atoms: _288  and  _291
REMARK  121  A    between atoms: _291  and  _292
REMARK  122  A    between atoms: _302  and  _304
REMARK  123  A    between atoms: _304  and  _305
REMARK  124  A    between atoms: _307  and  _309
REMARK  125  A    between atoms: _309  and  _310
REMARK  126  A    between atoms: _309  and  _312
REMARK  127  A    between atoms: _312  and  _313
REMARK  128  A    between atoms: _316  and  _318
REMARK  129  A    between atoms: _318  and  _319
REMARK  130  A    between atoms: _318  and  _321
REMARK  131  A    between atoms: _321  and  _322
REMARK  132  A    between atoms: _325  and  _327
REMARK  133  A    between atoms: _327  and  _328
REMARK  134  A    between atoms: _330  and  _332
REMARK  135  A    between atoms: _332  and  _333
REMARK  136  A    between atoms: _332  and  _335
REMARK  137  A    between atoms: _335  and  _336
REMARK  138  A    between atoms: _339  and  _341
REMARK  139  A    between atoms: _341  and  _342
REMARK  140  A    between atoms: _345  and  _347
REMARK  141  A    between atoms: _347  and  _348
REMARK  142  A    between atoms: _347  and  _350
REMARK  143  A    between atoms: _350  and  _351
REMARK  144  A    between atoms: _356  and  _357
REMARK  145  A    between atoms: _359  and  _361
REMARK  146  A    between atoms: _361  and  _362
REMARK  147  A    between atoms: _361  and  _364
REMARK  148  A    between atoms: _364  and  _365
REMARK  149  A    between atoms: _368  and  _370
REMARK  150  A    between atoms: _370  and  _371
REMARK  151  A    between atoms: _374  and  _376
REMARK  152  A    between atoms: _376  and  _377
REMARK  153  A    between atoms: _376  and  _379
REMARK  154  A    between atoms: _379  and  _380
REMARK  155  A    between atoms: _380  and  _381
REMARK  156  A    between atoms: _381  and  _382
REMARK  157  A    between atoms: _391  and  _393
REMARK  158  A    between atoms: _393  and  _394
REMARK  159  A    between atoms: _393  and  _396
REMARK  160  A    between atoms: _396  and  _397
REMARK  161  A    between atoms: _407  and  _409
REMARK  162  A    between atoms: _409  and  _410
REMARK  163  A    between atoms: _409  and  _412
REMARK  164  A    between atoms: _412  and  _413
REMARK  165  A    between atoms: _418  and  _419
REMARK  166  A    between atoms: _421  and  _423
REMARK  167  A    between atoms: _423  and  _424
REMARK  168  A    between atoms: _423  and  _426
REMARK  169  A    between atoms: _426  and  _427
REMARK  170  A    between atoms: _430  and  _432
REMARK  171  A    between atoms: _432  and  _433
REMARK  172  A    between atoms: _432  and  _435
REMARK  173  A    between atoms: _435  and  _436
REMARK  174  A    between atoms: _436  and  _437
REMARK  175  A    between atoms: _437  and  _438
REMARK  176  A    between atoms: _438  and  _439
REMARK  177  A    between atoms: _443  and  _445
REMARK  178  A    between atoms: _445  and  _446
REMARK  179  A    between atoms: _445  and  _448
REMARK  180  A    between atoms: _448  and  _449
REMARK  181  A    between atoms: _452  and  _454
REMARK  182  A    between atoms: _454  and  _455
REMARK  183  A    between atoms: _454  and  _457
REMARK  184  A    between atoms: _460  and  _462
REMARK  185  A    between atoms: _462  and  _463
REMARK  186  A    between atoms: _462  and  _465
REMARK  187  A    between atoms: _465  and  _466
REMARK  188  A    between atoms: _469  and  _471
REMARK  189  A    between atoms: _471  and  _472
REMARK  190  A    between atoms: _471  and  _474
REMARK  191  A    between atoms: _474  and  _475
REMARK  192  A    between atoms: _477  and  _479
REMARK  193  A    between atoms: _479  and  _480
REMARK  194  A    between atoms: _482  and  _484
REMARK  195  A    between atoms: _484  and  _485
REMARK  196  A    between atoms: _484  and  _487
REMARK  197  A    between atoms: _487  and  _488
REMARK  198  A    between atoms: _491  and  _493
REMARK  199  A    between atoms: _493  and  _494
REMARK  200  A    between atoms: _493  and  _496
REMARK  201  A    between atoms: _496  and  _497
REMARK  202  A    between atoms: _500  and  _502
REMARK  203  A    between atoms: _502  and  _503
REMARK  204  A    between atoms: _502  and  _505
REMARK  205  A    between atoms: _505  and  _506
REMARK  206  A    between atoms: _511  and  _513
REMARK  207  A    between atoms: _513  and  _514
REMARK  208  A    between atoms: _513  and  _516
REMARK  209  A    between atoms: _516  and  _517
REMARK  210  A    between atoms: _520  and  _522
REMARK  211  A    between atoms: _522  and  _523
REMARK  212  A    between atoms: _522  and  _525
REMARK  213  A    between atoms: _525  and  _526
REMARK  214  A    between atoms: _526  and  _527
REMARK  215  A    between atoms: _527  and  _528
REMARK  216  A    between atoms: _537  and  _539
REMARK  217  A    between atoms: _539  and  _540
REMARK  218  A    between atoms: _539  and  _542
REMARK  219  A    between atoms: _542  and  _543
REMARK  220  A    between atoms: _546  and  _548
REMARK  221  A    between atoms: _548  and  _549
REMARK  222  A    between atoms: _551  and  _553
REMARK  223  A    between atoms: _553  and  _554
REMARK  224  A    between atoms: _553  and  _556
REMARK  225  A    between atoms: _556  and  _557
REMARK  226  A    between atoms: _557  and  _558
REMARK  227  A    between atoms: _561  and  _563
REMARK  228  A    between atoms: _563  and  _564
REMARK  229  A    between atoms: _563  and  _566
REMARK  230  A    between atoms: _566  and  _567
REMARK  231  A    between atoms: _567  and  _568
REMARK  232  A    between atoms: _568  and  _569
REMARK  233  A    between atoms: _578  and  _580
REMARK  234  A    between atoms: _580  and  _581
REMARK  235  A    between atoms: _580  and  _583
REMARK  236  A    between atoms: _583  and  _584
REMARK  237  A    between atoms: _584  and  _585
REMARK  238  A    between atoms: _585  and  _586
REMARK  239  A    between atoms: _586  and  _587
REMARK  240  A    between atoms: _591  and  _593
REMARK  241  A    between atoms: _593  and  _594
REMARK  242  A    between atoms: _593  and  _596
REMARK  243  A    between atoms: _596  and  _597
REMARK  244  A    between atoms: _603  and  _605
REMARK  245  A    between atoms: _605  and  _606
REMARK  246  A    between atoms: _609  and  _611
REMARK  247  A    between atoms: _611  and  _612
REMARK  248  A    between atoms: _611  and  _614
REMARK  249  A    between atoms: _614  and  _615
REMARK  250  A    between atoms: _618  and  _620
REMARK  251  A    between atoms: _620  and  _621
REMARK  252  A    between atoms: _620  and  _623
REMARK  253  A    between atoms: _623  and  _624
REMARK  254  A    between atoms: _626  and  _628
REMARK  255  A    between atoms: _628  and  _629
REMARK  256  A    between atoms: _628  and  _631
REMARK  257  A    between atoms: _631  and  _632
REMARK  258  A    between atoms: _632  and  _633
REMARK  259  A    between atoms: _638  and  _640
REMARK  260  A    between atoms: _640  and  _641
REMARK  261  A    between atoms: _640  and  _643
REMARK  262  A    between atoms: _643  and  _644
REMARK  263  A    between atoms: _646  and  _648
REMARK  264  A    between atoms: _648  and  _649
REMARK  265  A    between atoms: _648  and  _651
REMARK  266  A    between atoms: _651  and  _652
REMARK  267  A    between atoms: _654  and  _656
REMARK  268  A    between atoms: _656  and  _657
REMARK  269  A    between atoms: _656  and  _659
REMARK  270  A    between atoms: _659  and  _660
REMARK  271  A    between atoms: _663  and  _665
REMARK  272  A    between atoms: _665  and  _666
REMARK  273  A    between atoms: _668  and  _670
REMARK  274  A    between atoms: _670  and  _671
REMARK  275  A    between atoms: _670  and  _673
REMARK  276  A    between atoms: _673  and  _674
REMARK  277  A    between atoms: _677  and  _679
REMARK  278  A    between atoms: _679  and  _680
REMARK  279  A    between atoms: _679  and  _682
REMARK  280  A    between atoms: _685  and  _687
REMARK  281  A    between atoms: _687  and  _688
REMARK  282  A    between atoms: _690  and  _692
REMARK  283  A    between atoms: _692  and  _693
REMARK  284  A    between atoms: _696  and  _698
REMARK  285  A    between atoms: _698  and  _699
REMARK  286  A    between atoms: _698  and  _701
REMARK                            x       y       z     vdW  Elec       q    Type
REMARK                         _______ _______ _______ _____ _____    ______ ____
ROOT
ATOM      1  O   HOH     1       4.530   9.305  -0.444  0.00  0.00    +0.000 OA
ENDROOT
TORSDOF 0
REMARK  Name = ../refined-set-2016/1fkn/1fkn_pocket.pdb
REMARK  286 active torsions:
REMARK  status: ('A' for Active; 'I' for Inactive)
REMARK    1  A    between atoms: _1  and  _3
REMARK    2  A    between atoms: _3  and  _4
REMARK    3  A    between atoms: _3  and  _6
REMARK    4  A    between atoms: _6  and  _7
REMARK    5  A    between atoms: _7  and  _8
REMARK    6  A    between atoms: _8  and  _9
REMARK    7  A    between atoms: _9  and  _10
REMARK    8  A    between atoms: _14  and  _16
REMARK    9  A    between atoms: _16  and  _17
REMARK   10  A    between atoms: _16  and  _19
REMARK   11  A    between atoms: _19  and  _20
REMARK   12  A    between atoms: _22  and  _24
REMARK   13  A    between atoms: _24  and  _25
REMARK   14  A    between atoms: _27  and  _29
REMARK   15  A    between atoms: _29  and  _30
REMARK   16  A    between atoms: _29  and  _32
REMARK   17  A    between atoms: _32  and  _33
REMARK   18  A    between atoms: _33  and  _34
REMARK   19  A    between atoms: _39  and  _41
REMARK   20  A    between atoms: _41  and  _42
REMARK   21  A    between atoms: _44  and  _46
REMARK   22  A    between atoms: _46  and  _47
REMARK   23  A    between atoms: _46  and  _49
REMARK   24  A    between atoms: _49  and  _50
REMARK   25  A    between atoms: _55  and  _56
REMARK   26  A    between atoms: _58  and  _60
REMARK   27  A    between atoms: _60  and  _61
REMARK   28  A    between atoms: _60  and  _63
REMARK   29  A    between atoms: _63  and  _64
REMARK   30  A    between atoms: _67  and  _69
REMARK   31  A    between atoms: _69  and  _70
REMARK   32  A    between atoms: _69  and  _72
REMARK   33  A    between atoms: _75  and  _77
REMARK   34  A    between atoms: _77  and  _78
REMARK   35  A    between atoms: _77  and  _80
REMARK   36  A    between atoms: _80  and  _81
REMARK   37  A    between atoms: _84  and  _86
REMARK   38  A    between atoms: _86  and  _87
REMARK   39  A    between atoms: _86  and  _89
REMARK   40  A    between atoms: _89  and  _90
REMARK   41  A    between atoms: _93  and  _95
REMARK   42  A    between atoms: _95  and  _96
REMARK   43  A    between atoms: _98  and  _100
REMARK   44  A    between atoms: _100  and  _101
REMARK   45  A    between atoms: _100  and  _103
REMARK   46  A    between atoms: _103  and  _104
REMARK   47  A    between atoms: _106  and  _108
REMARK   48  A    between atoms: _108  and  _109
REMARK   49  A    between atoms: _108  and  _111
REMARK   50  A    between atoms: _111  and  _112
REMARK   51  A    between atoms: _114  and  _116
REMARK   52  A    between atoms: _116  and  _117
REMARK   53  A    between atoms: _116  and  _119
REMARK   54  A    between atoms: _119  and  _120
REMARK   55  A    between atoms: _125  and  _127
REMARK   56  A    between atoms: _127  and  _128
REMARK   57  A    between atoms: _127  and  _130
REMARK   58  A    between atoms: _130  and  _131
REMARK   59  A    between atoms: _136  and  _137
REMARK   60  A    between atoms: _139  and  _141
REMARK   61  A    between atoms: _141  and  _142
REMARK   62  A    between atoms: _141  and  _144
REMARK   63  A    between atoms: _148  and  _149
REMARK   64  A    between atoms: _154  and  _156
REMARK   65  A    between atoms: _156  and  _157
REMARK   66  A    between atoms: _156  and  _159
REMARK   67  A    between atoms: _159  and  _160
REMARK   68  A    between atoms: _165  and  _166
REMARK   69  A    between atoms: _168  and  _170
REMARK   70  A    between atoms: _170  and  _171
REMARK   71  A    between atoms: _170  and  _173
REMARK   72  A    between atoms: _173  and  _174
REMARK   73  A    between atoms: _177  and  _179
REMARK   74  A    between atoms: _179  and  _180
REMARK   75  A    between atoms: _179  and  _182
REMARK   76  A    between atoms: _182  and  _183
REMARK   77  A    between atoms: _183  and  _184
REMARK   78  A    between atoms: _189  and  _191
REMARK   79  A    between atoms: _191  and  _192
REMARK   80  A    between atoms: _194  and  _196
REMARK   81  A    between atoms: _196  and  _197
REMARK   82  A    between atoms: _196  and  _199
REMARK   83  A    between atoms: _199  and  _200
REMARK   84  A    between atoms: _200  and  _201
REMARK   85  A    between atoms: _201  and  _202
REMARK   86  A    between atoms: _202  and  _203
REMARK   87  A    between atoms: _207  and  _209
REMARK   88  A    between atoms: _209  and  _210
REMARK   89  A    between atoms: _209  and  _212
REMARK   90  A    between atoms: _212  and  _213
REMARK   91  A    between atoms: _223  and  _225
REMARK   92  A    between atoms: _225  and  _226
REMARK   93  A    between atoms: _225  and  _228
REMARK   94  A    between atoms: _228  and  _229
REMARK   95  A    between atoms: _232  and  _234
REMARK   96  A    between atoms: _234  and  _235
REMARK   97  A    between atoms: _234  and  _237
REMARK   98  A    between atoms: _237  and  _238
REMARK   99  A    between atoms: _238  and  _239
REMARK  100  A    between atoms: _239  and  _240
REMARK  101  A    between atoms: _240  and  _241
REMARK  102  A    between atoms: _245  and  _247
REMARK  103  A    between atoms: _247  and  _248
REMARK  104  A    between atoms: _247  and  _250
REMARK  105  A    between atoms: _250  and  _251
REMARK  106  A    between atoms: _257  and  _259
REMARK  107  A    between atoms: _259  and  _260
REMARK  108  A    between atoms: _259  and  _262
REMARK  109  A    between atoms: _262  and  _263
REMARK  110  A    between atoms: _269  and  _271
REMARK  111  A    between atoms: _271  and  _272
REMARK  112  A    between atoms: _271  and  _274
REMARK  113  A    between atoms: _274  and  _275
REMARK  114  A    between atoms: _278  and  _280
REMARK  115  A    between atoms: _280  and  _281
REMARK  116  A    between atoms: _280  and  _283
REMARK  117  A    between atoms: _283  and  _284
REMARK  118  A    between atoms: _286  and  _288
REMARK  119  A    between atoms: _288  and  _289
REMARK  120  A    between atoms: _288  and  _291
REMARK  121  A    between atoms: _291  and  _292
REMARK  122  A    between atoms: _302  and  _304
REMARK  123  A    between atoms: _304  and  _305
REMARK  124  A    between atoms: _307  and  _309
REMARK  125  A    between atoms: _309  and  _310
REMARK  126  A    between atoms: _309  and  _312
REMARK  127  A    between atoms: _312  and  _313
REMARK  128  A    between atoms: _316  and  _318
REMARK  129  A    between atoms: _318  and  _319
REMARK  130  A    between atoms: _318  and  _321
REMARK  131  A    between atoms: _321  and  _322
REMARK  132  A    between atoms: _325  and  _327
REMARK  133  A    between atoms: _327  and  _328
REMARK  134  A    between atoms: _330  and  _332
REMARK  135  A    between atoms: _332  and  _333
REMARK  136  A    between atoms: _332  and  _335
REMARK  137  A    between atoms: _335  and  _336
REMARK  138  A    between atoms: _339  and  _341
REMARK  139  A    between atoms: _341  and  _342
REMARK  140  A    between atoms: _345  and  _347
REMARK  141  A    between atoms: _347  and  _348
REMARK  142  A    between atoms: _347  and  _350
REMARK  143  A    between atoms: _350  and  _351
REMARK  144  A    between atoms: _356  and  _357
REMARK  145  A    between atoms: _359  and  _361
REMARK  146  A    between atoms: _361  and  _362
REMARK  147  A    between atoms: _361  and  _364
REMARK  148  A    between atoms: _364  and  _365
REMARK  149  A    between atoms: _368  and  _370
REMARK  150  A    between atoms: _370  and  _371
REMARK  151  A    between atoms: _374  and  _376
REMARK  152  A    between atoms: _376  and  _377
REMARK  153  A    between atoms: _376  and  _379
REMARK  154  A    between atoms: _379  and  _380
REMARK  155  A    between atoms: _380  and  _381
REMARK  156  A    between atoms: _381  and  _382
REMARK  157  A    between atoms: _391  and  _393
REMARK  158  A    between atoms: _393  and  _394
REMARK  159  A    between atoms: _393  and  _396
REMARK  160  A    between atoms: _396  and  _397
REMARK  161  A    between atoms: _407  and  _409
REMARK  162  A    between atoms: _409  and  _410
REMARK  163  A    between atoms: _409  and  _412
REMARK  164  A    between atoms: _412  and  _413
REMARK  165  A    between atoms: _418  and  _419
REMARK  166  A    between atoms: _421  and  _423
REMARK  167  A    between atoms: _423  and  _424
REMARK  168  A    between atoms: _423  and  _426
REMARK  169  A    between atoms: _426  and  _427
REMARK  170  A    between atoms: _430  and  _432
REMARK  171  A    between atoms: _432  and  _433
REMARK  172  A    between atoms: _432  and  _435
REMARK  173  A    between atoms: _435  and  _436
REMARK  174  A    between atoms: _436  and  _437
REMARK  175  A    between atoms: _437  and  _438
REMARK  176  A    between atoms: _438  and  _439
REMARK  177  A    between atoms: _443  and  _445
REMARK  178  A    between atoms: _445  and  _446
REMARK  179  A    between atoms: _445  and  _448
REMARK  180  A    between atoms: _448  and  _449
REMARK  181  A    between atoms: _452  and  _454
REMARK  182  A    between atoms: _454  and  _455
REMARK  183  A    between atoms: _454  and  _457
REMARK  184  A    between atoms: _460  and  _462
REMARK  185  A    between atoms: _462  and  _463
REMARK  186  A    between atoms: _462  and  _465
REMARK  187  A    between atoms: _465  and  _466
REMARK  188  A    between atoms: _469  and  _471
REMARK  189  A    between atoms: _471  and  _472
REMARK  190  A    between atoms: _471  and  _474
REMARK  191  A    between atoms: _474  and  _475
REMARK  192  A    between atoms: _477  and  _479
REMARK  193  A    between atoms: _479  and  _480
REMARK  194  A    between atoms: _482  and  _484
REMARK  195  A    between atoms: _484  and  _485
REMARK  196  A    between atoms: _484  and  _487
REMARK  197  A    between atoms: _487  and  _488
REMARK  198  A    between atoms: _491  and  _493
REMARK  199  A    between atoms: _493  and  _494
REMARK  200  A    between atoms: _493  and  _496
REMARK  201  A    between atoms: _496  and  _497
REMARK  202  A    between atoms: _500  and  _502
REMARK  203  A    between atoms: _502  and  _503
REMARK  204  A    between atoms: _502  and  _505
REMARK  205  A    between atoms: _505  and  _506
REMARK  206  A    between atoms: _511  and  _513
REMARK  207  A    between atoms: _513  and  _514
REMARK  208  A    between atoms: _513  and  _516
REMARK  209  A    between atoms: _516  and  _517
REMARK  210  A    between atoms: _520  and  _522
REMARK  211  A    between atoms: _522  and  _523
REMARK  212  A    between atoms: _522  and  _525
REMARK  213  A    between atoms: _525  and  _526
REMARK  214  A    between atoms: _526  and  _527
REMARK  215  A    between atoms: _527  and  _528
REMARK  216  A    between atoms: _537  and  _539
REMARK  217  A    between atoms: _539  and  _540
REMARK  218  A    between atoms: _539  and  _542
REMARK  219  A    between atoms: _542  and  _543
REMARK  220  A    between atoms: _546  and  _548
REMARK  221  A    between atoms: _548  and  _549
REMARK  222  A    between atoms: _551  and  _553
REMARK  223  A    between atoms: _553  and  _554
REMARK  224  A    between atoms: _553  and  _556
REMARK  225  A    between atoms: _556  and  _557
REMARK  226  A    between atoms: _557  and  _558
REMARK  227  A    between atoms: _561  and  _563
REMARK  228  A    between atoms: _563  and  _564
REMARK  229  A    between atoms: _563  and  _566
REMARK  230  A    between atoms: _566  and  _567
REMARK  231  A    between atoms: _567  and  _568
REMARK  232  A    between atoms: _568  and  _569
REMARK  233  A    between atoms: _578  and  _580
REMARK  234  A    between atoms: _580  and  _581
REMARK  235  A    between atoms: _580  and  _583
REMARK  236  A    between atoms: _583  and  _584
REMARK  237  A    between atoms: _584  and  _585
REMARK  238  A    between atoms: _585  and  _586
REMARK  239  A    between atoms: _586  and  _587
REMARK  240  A    between atoms: _591  and  _593
REMARK  241  A    between atoms: _593  and  _594
REMARK  242  A    between atoms: _593  and  _596
REMARK  243  A    between atoms: _596  and  _597
REMARK  244  A    between atoms: _603  and  _605
REMARK  245  A    between atoms: _605  and  _606
REMARK  246  A    between atoms: _609  and  _611
REMARK  247  A    between atoms: _611  and  _612
REMARK  248  A    between atoms: _611  and  _614
REMARK  249  A    between atoms: _614  and  _615
REMARK  250  A    between atoms: _618  and  _620
REMARK  251  A    between atoms: _620  and  _621
REMARK  252  A    between atoms: _620  and  _623
REMARK  253  A    between atoms: _623  and  _624
REMARK  254  A    between atoms: _626  and  _628
REMARK  255  A    between atoms: _628  and  _629
REMARK  256  A    between atoms: _628  and  _631
REMARK  257  A    between atoms: _631  and  _632
REMARK  258  A    between atoms: _632  and  _633
REMARK  259  A    between atoms: _638  and  _640
REMARK  260  A    between atoms: _640  and  _641
REMARK  261  A    between atoms: _640  and  _643
REMARK  262  A    between atoms: _643  and  _644
REMARK  263  A    between atoms: _646  and  _648
REMARK  264  A    between atoms: _648  and  _649
REMARK  265  A    between atoms: _648  and  _651
REMARK  266  A    between atoms: _651  and  _652
REMARK  267  A    between atoms: _654  and  _656
REMARK  268  A    between atoms: _656  and  _657
REMARK  269  A    between atoms: _656  and  _659
REMARK  270  A    between atoms: _659  and  _660
REMARK  271  A    between atoms: _663  and  _665
REMARK  272  A    between atoms: _665  and  _666
REMARK  273  A    between atoms: _668  and  _670
REMARK  274  A    between atoms: _670  and  _671
REMARK  275  A    between atoms: _670  and  _673
REMARK  276  A    between atoms: _673  and  _674
REMARK  277  A    between atoms: _677  and  _679
REMARK  278  A    between atoms: _679  and  _680
REMARK  279  A    between atoms: _679  and  _682
REMARK  280  A    between atoms: _685  and  _687
REMARK  281  A    between atoms: _687  and  _688
REMARK  282  A    between atoms: _690  and  _692
REMARK  283  A    between atoms: _692  and  _693
REMARK  284  A    between atoms: _696  and  _698
REMARK  285  A    between atoms: _698  and  _699
REMARK  286  A    between atoms: _698  and  _701
REMARK                            x       y       z     vdW  Elec       q    Type
REMARK                         _______ _______ _______ _____ _____    ______ ____
ROOT
ATOM      1  O   HOH     1      20.727   3.438  -7.680  0.00  0.00    +0.000 OA
ENDROOT
TORSDOF 0
REMARK  Name = ../refined-set-2016/1fkn/1fkn_pocket.pdb
REMARK  286 active torsions:
REMARK  status: ('A' for Active; 'I' for Inactive)
REMARK    1  A    between atoms: _1  and  _3
REMARK    2  A    between atoms: _3  and  _4
REMARK    3  A    between atoms: _3  and  _6
REMARK    4  A    between atoms: _6  and  _7
REMARK    5  A    between atoms: _7  and  _8
REMARK    6  A    between atoms: _8  and  _9
REMARK    7  A    between atoms: _9  and  _10
REMARK    8  A    between atoms: _14  and  _16
REMARK    9  A    between atoms: _16  and  _17
REMARK   10  A    between atoms: _16  and  _19
REMARK   11  A    between atoms: _19  and  _20
REMARK   12  A    between atoms: _22  and  _24
REMARK   13  A    between atoms: _24  and  _25
REMARK   14  A    between atoms: _27  and  _29
REMARK   15  A    between atoms: _29  and  _30
REMARK   16  A    between atoms: _29  and  _32
REMARK   17  A    between atoms: _32  and  _33
REMARK   18  A    between atoms: _33  and  _34
REMARK   19  A    between atoms: _39  and  _41
REMARK   20  A    between atoms: _41  and  _42
REMARK   21  A    between atoms: _44  and  _46
REMARK   22  A    between atoms: _46  and  _47
REMARK   23  A    between atoms: _46  and  _49
REMARK   24  A    between atoms: _49  and  _50
REMARK   25  A    between atoms: _55  and  _56
REMARK   26  A    between atoms: _58  and  _60
REMARK   27  A    between atoms: _60  and  _61
REMARK   28  A    between atoms: _60  and  _63
REMARK   29  A    between atoms: _63  and  _64
REMARK   30  A    between atoms: _67  and  _69
REMARK   31  A    between atoms: _69  and  _70
REMARK   32  A    between atoms: _69  and  _72
REMARK   33  A    between atoms: _75  and  _77
REMARK   34  A    between atoms: _77  and  _78
REMARK   35  A    between atoms: _77  and  _80
REMARK   36  A    between atoms: _80  and  _81
REMARK   37  A    between atoms: _84  and  _86
REMARK   38  A    between atoms: _86  and  _87
REMARK   39  A    between atoms: _86  and  _89
REMARK   40  A    between atoms: _89  and  _90
REMARK   41  A    between atoms: _93  and  _95
REMARK   42  A    between atoms: _95  and  _96
REMARK   43  A    between atoms: _98  and  _100
REMARK   44  A    between atoms: _100  and  _101
REMARK   45  A    between atoms: _100  and  _103
REMARK   46  A    between atoms: _103  and  _104
REMARK   47  A    between atoms: _106  and  _108
REMARK   48  A    between atoms: _108  and  _109
REMARK   49  A    between atoms: _108  and  _111
REMARK   50  A    between atoms: _111  and  _112
REMARK   51  A    between atoms: _114  and  _116
REMARK   52  A    between atoms: _116  and  _117
REMARK   53  A    between atoms: _116  and  _119
REMARK   54  A    between atoms: _119  and  _120
REMARK   55  A    between atoms: _125  and  _127
REMARK   56  A    between atoms: _127  and  _128
REMARK   57  A    between atoms: _127  and  _130
REMARK   58  A    between atoms: _130  and  _131
REMARK   59  A    between atoms: _136  and  _137
REMARK   60  A    between atoms: _139  and  _141
REMARK   61  A    between atoms: _141  and  _142
REMARK   62  A    between atoms: _141  and  _144
REMARK   63  A    between atoms: _148  and  _149
REMARK   64  A    between atoms: _154  and  _156
REMARK   65  A    between atoms: _156  and  _157
REMARK   66  A    between atoms: _156  and  _159
REMARK   67  A    between atoms: _159  and  _160
REMARK   68  A    between atoms: _165  and  _166
REMARK   69  A    between atoms: _168  and  _170
REMARK   70  A    between atoms: _170  and  _171
REMARK   71  A    between atoms: _170  and  _173
REMARK   72  A    between atoms: _173  and  _174
REMARK   73  A    between atoms: _177  and  _179
REMARK   74  A    between atoms: _179  and  _180
REMARK   75  A    between atoms: _179  and  _182
REMARK   76  A    between atoms: _182  and  _183
REMARK   77  A    between atoms: _183  and  _184
REMARK   78  A    between atoms: _189  and  _191
REMARK   79  A    between atoms: _191  and  _192
REMARK   80  A    between atoms: _194  and  _196
REMARK   81  A    between atoms: _196  and  _197
REMARK   82  A    between atoms: _196  and  _199
REMARK   83  A    between atoms: _199  and  _200
REMARK   84  A    between atoms: _200  and  _201
REMARK   85  A    between atoms: _201  and  _202
REMARK   86  A    between atoms: _202  and  _203
REMARK   87  A    between atoms: _207  and  _209
REMARK   88  A    between atoms: _209  and  _210
REMARK   89  A    between atoms: _209  and  _212
REMARK   90  A    between atoms: _212  and  _213
REMARK   91  A    between atoms: _223  and  _225
REMARK   92  A    between atoms: _225  and  _226
REMARK   93  A    between atoms: _225  and  _228
REMARK   94  A    between atoms: _228  and  _229
REMARK   95  A    between atoms: _232  and  _234
REMARK   96  A    between atoms: _234  and  _235
REMARK   97  A    between atoms: _234  and  _237
REMARK   98  A    between atoms: _237  and  _238
REMARK   99  A    between atoms: _238  and  _239
REMARK  100  A    between atoms: _239  and  _240
REMARK  101  A    between atoms: _240  and  _241
REMARK  102  A    between atoms: _245  and  _247
REMARK  103  A    between atoms: _247  and  _248
REMARK  104  A    between atoms: _247  and  _250
REMARK  105  A    between atoms: _250  and  _251
REMARK  106  A    between atoms: _257  and  _259
REMARK  107  A    between atoms: _259  and  _260
REMARK  108  A    between atoms: _259  and  _262
REMARK  109  A    between atoms: _262  and  _263
REMARK  110  A    between atoms: _269  and  _271
REMARK  111  A    between atoms: _271  and  _272
REMARK  112  A    between atoms: _271  and  _274
REMARK  113  A    between atoms: _274  and  _275
REMARK  114  A    between atoms: _278  and  _280
REMARK  115  A    between atoms: _280  and  _281
REMARK  116  A    between atoms: _280  and  _283
REMARK  117  A    between atoms: _283  and  _284
REMARK  118  A    between atoms: _286  and  _288
REMARK  119  A    between atoms: _288  and  _289
REMARK  120  A    between atoms: _288  and  _291
REMARK  121  A    between atoms: _291  and  _292
REMARK  122  A    between atoms: _302  and  _304
REMARK  123  A    between atoms: _304  and  _305
REMARK  124  A    between atoms: _307  and  _309
REMARK  125  A    between atoms: _309  and  _310
REMARK  126  A    between atoms: _309  and  _312
REMARK  127  A    between atoms: _312  and  _313
REMARK  128  A    between atoms: _316  and  _318
REMARK  129  A    between atoms: _318  and  _319
REMARK  130  A    between atoms: _318  and  _321
REMARK  131  A    between atoms: _321  and  _322
REMARK  132  A    between atoms: _325  and  _327
REMARK  133  A    between atoms: _327  and  _328
REMARK  134  A    between atoms: _330  and  _332
REMARK  135  A    between atoms: _332  and  _333
REMARK  136  A    between atoms: _332  and  _335
REMARK  137  A    between atoms: _335  and  _336
REMARK  138  A    between atoms: _339  and  _341
REMARK  139  A    between atoms: _341  and  _342
REMARK  140  A    between atoms: _345  and  _347
REMARK  141  A    between atoms: _347  and  _348
REMARK  142  A    between atoms: _347  and  _350
REMARK  143  A    between atoms: _350  and  _351
REMARK  144  A    between atoms: _356  and  _357
REMARK  145  A    between atoms: _359  and  _361
REMARK  146  A    between atoms: _361  and  _362
REMARK  147  A    between atoms: _361  and  _364
REMARK  148  A    between atoms: _364  and  _365
REMARK  149  A    between atoms: _368  and  _370
REMARK  150  A    between atoms: _370  and  _371
REMARK  151  A    between atoms: _374  and  _376
REMARK  152  A    between atoms: _376  and  _377
REMARK  153  A    between atoms: _376  and  _379
REMARK  154  A    between atoms: _379  and  _380
REMARK  155  A    between atoms: _380  and  _381
REMARK  156  A    between atoms: _381  and  _382
REMARK  157  A    between atoms: _391  and  _393
REMARK  158  A    between atoms: _393  and  _394
REMARK  159  A    between atoms: _393  and  _396
REMARK  160  A    between atoms: _396  and  _397
REMARK  161  A    between atoms: _407  and  _409
REMARK  162  A    between atoms: _409  and  _410
REMARK  163  A    between atoms: _409  and  _412
REMARK  164  A    between atoms: _412  and  _413
REMARK  165  A    between atoms: _418  and  _419
REMARK  166  A    between atoms: _421  and  _423
REMARK  167  A    between atoms: _423  and  _424
REMARK  168  A    between atoms: _423  and  _426
REMARK  169  A    between atoms: _426  and  _427
REMARK  170  A    between atoms: _430  and  _432
REMARK  171  A    between atoms: _432  and  _433
REMARK  172  A    between atoms: _432  and  _435
REMARK  173  A    between atoms: _435  and  _436
REMARK  174  A    between atoms: _436  and  _437
REMARK  175  A    between atoms: _437  and  _438
REMARK  176  A    between atoms: _438  and  _439
REMARK  177  A    between atoms: _443  and  _445
REMARK  178  A    between atoms: _445  and  _446
REMARK  179  A    between atoms: _445  and  _448
REMARK  180  A    between atoms: _448  and  _449
REMARK  181  A    between atoms: _452  and  _454
REMARK  182  A    between atoms: _454  and  _455
REMARK  183  A    between atoms: _454  and  _457
REMARK  184  A    between atoms: _460  and  _462
REMARK  185  A    between atoms: _462  and  _463
REMARK  186  A    between atoms: _462  and  _465
REMARK  187  A    between atoms: _465  and  _466
REMARK  188  A    between atoms: _469  and  _471
REMARK  189  A    between atoms: _471  and  _472
REMARK  190  A    between atoms: _471  and  _474
REMARK  191  A    between atoms: _474  and  _475
REMARK  192  A    between atoms: _477  and  _479
REMARK  193  A    between atoms: _479  and  _480
REMARK  194  A    between atoms: _482  and  _484
REMARK  195  A    between atoms: _484  and  _485
REMARK  196  A    between atoms: _484  and  _487
REMARK  197  A    between atoms: _487  and  _488
REMARK  198  A    between atoms: _491  and  _493
REMARK  199  A    between atoms: _493  and  _494
REMARK  200  A    between atoms: _493  and  _496
REMARK  201  A    between atoms: _496  and  _497
REMARK  202  A    between atoms: _500  and  _502
REMARK  203  A    between atoms: _502  and  _503
REMARK  204  A    between atoms: _502  and  _505
REMARK  205  A    between atoms: _505  and  _506
REMARK  206  A    between atoms: _511  and  _513
REMARK  207  A    between atoms: _513  and  _514
REMARK  208  A    between atoms: _513  and  _516
REMARK  209  A    between atoms: _516  and  _517
REMARK  210  A    between atoms: _520  and  _522
REMARK  211  A    between atoms: _522  and  _523
REMARK  212  A    between atoms: _522  and  _525
REMARK  213  A    between atoms: _525  and  _526
REMARK  214  A    between atoms: _526  and  _527
REMARK  215  A    between atoms: _527  and  _528
REMARK  216  A    between atoms: _537  and  _539
REMARK  217  A    between atoms: _539  and  _540
REMARK  218  A    between atoms: _539  and  _542
REMARK  219  A    between atoms: _542  and  _543
REMARK  220  A    between atoms: _546  and  _548
REMARK  221  A    between atoms: _548  and  _549
REMARK  222  A    between atoms: _551  and  _553
REMARK  223  A    between atoms: _553  and  _554
REMARK  224  A    between atoms: _553  and  _556
REMARK  225  A    between atoms: _556  and  _557
REMARK  226  A    between atoms: _557  and  _558
REMARK  227  A    between atoms: _561  and  _563
REMARK  228  A    between atoms: _563  and  _564
REMARK  229  A    between atoms: _563  and  _566
REMARK  230  A    between atoms: _566  and  _567
REMARK  231  A    between atoms: _567  and  _568
REMARK  232  A    between atoms: _568  and  _569
REMARK  233  A    between atoms: _578  and  _580
REMARK  234  A    between atoms: _580  and  _581
REMARK  235  A    between atoms: _580  and  _583
REMARK  236  A    between atoms: _583  and  _584
REMARK  237  A    between atoms: _584  and  _585
REMARK  238  A    between atoms: _585  and  _586
REMARK  239  A    between atoms: _586  and  _587
REMARK  240  A    between atoms: _591  and  _593
REMARK  241  A    between atoms: _593  and  _594
REMARK  242  A    between atoms: _593  and  _596
REMARK  243  A    between atoms: _596  and  _597
REMARK  244  A    between atoms: _603  and  _605
REMARK  245  A    between atoms: _605  and  _606
REMARK  246  A    between atoms: _609  and  _611
REMARK  247  A    between atoms: _611  and  _612
REMARK  248  A    between atoms: _611  and  _614
REMARK  249  A    between atoms: _614  and  _615
REMARK  250  A    between atoms: _618  and  _620
REMARK  251  A    between atoms: _620  and  _621
REMARK  252  A    between atoms: _620  and  _623
REMARK  253  A    between atoms: _623  and  _624
REMARK  254  A    between atoms: _626  and  _628
REMARK  255  A    between atoms: _628  and  _629
REMARK  256  A    between atoms: _628  and  _631
REMARK  257  A    between atoms: _631  and  _632
REMARK  258  A    between atoms: _632  and  _633
REMARK  259  A    between atoms: _638  and  _640
REMARK  260  A    between atoms: _640  and  _641
REMARK  261  A    between atoms: _640  and  _643
REMARK  262  A    between atoms: _643  and  _644
REMARK  263  A    between atoms: _646  and  _648
REMARK  264  A    between atoms: _648  and  _649
REMARK  265  A    between atoms: _648  and  _651
REMARK  266  A    between atoms: _651  and  _652
REMARK  267  A    between atoms: _654  and  _656
REMARK  268  A    between atoms: _656  and  _657
REMARK  269  A    between atoms: _656  and  _659
REMARK  270  A    between atoms: _659  and  _660
REMARK  271  A    between atoms: _663  and  _665
REMARK  272  A    between atoms: _665  and  _666
REMARK  273  A    between atoms: _668  and  _670
REMARK  274  A    between atoms: _670  and  _671
REMARK  275  A    between atoms: _670  and  _673
REMARK  276  A    between atoms: _673  and  _674
REMARK  277  A    between atoms: _677  and  _679
REMARK  278  A    between atoms: _679  and  _680
REMARK  279  A    between atoms: _679  and  _682
REMARK  280  A    between atoms: _685  and  _687
REMARK  281  A    between atoms: _687  and  _688
REMARK  282  A    between atoms: _690  and  _692
REMARK  283  A    between atoms: _692  and  _693
REMARK  284  A    between atoms: _696  and  _698
REMARK  285  A    between atoms: _698  and  _699
REMARK  286  A    between atoms: _698  and  _701
REMARK                            x       y       z     vdW  Elec       q    Type
REMARK                         _______ _______ _______ _____ _____    ______ ____
ROOT
ATOM      1  O   HOH     1       8.857  -0.916   2.015  0.00  0.00    +0.000 OA
ENDROOT
TORSDOF 0
REMARK  Name = ../refined-set-2016/1fkn/1fkn_pocket.pdb
REMARK  286 active torsions:
REMARK  status: ('A' for Active; 'I' for Inactive)
REMARK    1  A    between atoms: _1  and  _3
REMARK    2  A    between atoms: _3  and  _4
REMARK    3  A    between atoms: _3  and  _6
REMARK    4  A    between atoms: _6  and  _7
REMARK    5  A    between atoms: _7  and  _8
REMARK    6  A    between atoms: _8  and  _9
REMARK    7  A    between atoms: _9  and  _10
REMARK    8  A    between atoms: _14  and  _16
REMARK    9  A    between atoms: _16  and  _17
REMARK   10  A    between atoms: _16  and  _19
REMARK   11  A    between atoms: _19  and  _20
REMARK   12  A    between atoms: _22  and  _24
REMARK   13  A    between atoms: _24  and  _25
REMARK   14  A    between atoms: _27  and  _29
REMARK   15  A    between atoms: _29  and  _30
REMARK   16  A    between atoms: _29  and  _32
REMARK   17  A    between atoms: _32  and  _33
REMARK   18  A    between atoms: _33  and  _34
REMARK   19  A    between atoms: _39  and  _41
REMARK   20  A    between atoms: _41  and  _42
REMARK   21  A    between atoms: _44  and  _46
REMARK   22  A    between atoms: _46  and  _47
REMARK   23  A    between atoms: _46  and  _49
REMARK   24  A    between atoms: _49  and  _50
REMARK   25  A    between atoms: _55  and  _56
REMARK   26  A    between atoms: _58  and  _60
REMARK   27  A    between atoms: _60  and  _61
REMARK   28  A    between atoms: _60  and  _63
REMARK   29  A    between atoms: _63  and  _64
REMARK   30  A    between atoms: _67  and  _69
REMARK   31  A    between atoms: _69  and  _70
REMARK   32  A    between atoms: _69  and  _72
REMARK   33  A    between atoms: _75  and  _77
REMARK   34  A    between atoms: _77  and  _78
REMARK   35  A    between atoms: _77  and  _80
REMARK   36  A    between atoms: _80  and  _81
REMARK   37  A    between atoms: _84  and  _86
REMARK   38  A    between atoms: _86  and  _87
REMARK   39  A    between atoms: _86  and  _89
REMARK   40  A    between atoms: _89  and  _90
REMARK   41  A    between atoms: _93  and  _95
REMARK   42  A    between atoms: _95  and  _96
REMARK   43  A    between atoms: _98  and  _100
REMARK   44  A    between atoms: _100  and  _101
REMARK   45  A    between atoms: _100  and  _103
REMARK   46  A    between atoms: _103  and  _104
REMARK   47  A    between atoms: _106  and  _108
REMARK   48  A    between atoms: _108  and  _109
REMARK   49  A    between atoms: _108  and  _111
REMARK   50  A    between atoms: _111  and  _112
REMARK   51  A    between atoms: _114  and  _116
REMARK   52  A    between atoms: _116  and  _117
REMARK   53  A    between atoms: _116  and  _119
REMARK   54  A    between atoms: _119  and  _120
REMARK   55  A    between atoms: _125  and  _127
REMARK   56  A    between atoms: _127  and  _128
REMARK   57  A    between atoms: _127  and  _130
REMARK   58  A    between atoms: _130  and  _131
REMARK   59  A    between atoms: _136  and  _137
REMARK   60  A    between atoms: _139  and  _141
REMARK   61  A    between atoms: _141  and  _142
REMARK   62  A    between atoms: _141  and  _144
REMARK   63  A    between atoms: _148  and  _149
REMARK   64  A    between atoms: _154  and  _156
REMARK   65  A    between atoms: _156  and  _157
REMARK   66  A    between atoms: _156  and  _159
REMARK   67  A    between atoms: _159  and  _160
REMARK   68  A    between atoms: _165  and  _166
REMARK   69  A    between atoms: _168  and  _170
REMARK   70  A    between atoms: _170  and  _171
REMARK   71  A    between atoms: _170  and  _173
REMARK   72  A    between atoms: _173  and  _174
REMARK   73  A    between atoms: _177  and  _179
REMARK   74  A    between atoms: _179  and  _180
REMARK   75  A    between atoms: _179  and  _182
REMARK   76  A    between atoms: _182  and  _183
REMARK   77  A    between atoms: _183  and  _184
REMARK   78  A    between atoms: _189  and  _191
REMARK   79  A    between atoms: _191  and  _192
REMARK   80  A    between atoms: _194  and  _196
REMARK   81  A    between atoms: _196  and  _197
REMARK   82  A    between atoms: _196  and  _199
REMARK   83  A    between atoms: _199  and  _200
REMARK   84  A    between atoms: _200  and  _201
REMARK   85  A    between atoms: _201  and  _202
REMARK   86  A    between atoms: _202  and  _203
REMARK   87  A    between atoms: _207  and  _209
REMARK   88  A    between atoms: _209  and  _210
REMARK   89  A    between atoms: _209  and  _212
REMARK   90  A    between atoms: _212  and  _213
REMARK   91  A    between atoms: _223  and  _225
REMARK   92  A    between atoms: _225  and  _226
REMARK   93  A    between atoms: _225  and  _228
REMARK   94  A    between atoms: _228  and  _229
REMARK   95  A    between atoms: _232  and  _234
REMARK   96  A    between atoms: _234  and  _235
REMARK   97  A    between atoms: _234  and  _237
REMARK   98  A    between atoms: _237  and  _238
REMARK   99  A    between atoms: _238  and  _239
REMARK  100  A    between atoms: _239  and  _240
REMARK  101  A    between atoms: _240  and  _241
REMARK  102  A    between atoms: _245  and  _247
REMARK  103  A    between atoms: _247  and  _248
REMARK  104  A    between atoms: _247  and  _250
REMARK  105  A    between atoms: _250  and  _251
REMARK  106  A    between atoms: _257  and  _259
REMARK  107  A    between atoms: _259  and  _260
REMARK  108  A    between atoms: _259  and  _262
REMARK  109  A    between atoms: _262  and  _263
REMARK  110  A    between atoms: _269  and  _271
REMARK  111  A    between atoms: _271  and  _272
REMARK  112  A    between atoms: _271  and  _274
REMARK  113  A    between atoms: _274  and  _275
REMARK  114  A    between atoms: _278  and  _280
REMARK  115  A    between atoms: _280  and  _281
REMARK  116  A    between atoms: _280  and  _283
REMARK  117  A    between atoms: _283  and  _284
REMARK  118  A    between atoms: _286  and  _288
REMARK  119  A    between atoms: _288  and  _289
REMARK  120  A    between atoms: _288  and  _291
REMARK  121  A    between atoms: _291  and  _292
REMARK  122  A    between atoms: _302  and  _304
REMARK  123  A    between atoms: _304  and  _305
REMARK  124  A    between atoms: _307  and  _309
REMARK  125  A    between atoms: _309  and  _310
REMARK  126  A    between atoms: _309  and  _312
REMARK  127  A    between atoms: _312  and  _313
REMARK  128  A    between atoms: _316  and  _318
REMARK  129  A    between atoms: _318  and  _319
REMARK  130  A    between atoms: _318  and  _321
REMARK  131  A    between atoms: _321  and  _322
REMARK  132  A    between atoms: _325  and  _327
REMARK  133  A    between atoms: _327  and  _328
REMARK  134  A    between atoms: _330  and  _332
REMARK  135  A    between atoms: _332  and  _333
REMARK  136  A    between atoms: _332  and  _335
REMARK  137  A    between atoms: _335  and  _336
REMARK  138  A    between atoms: _339  and  _341
REMARK  139  A    between atoms: _341  and  _342
REMARK  140  A    between atoms: _345  and  _347
REMARK  141  A    between atoms: _347  and  _348
REMARK  142  A    between atoms: _347  and  _350
REMARK  143  A    between atoms: _350  and  _351
REMARK  144  A    between atoms: _356  and  _357
REMARK  145  A    between atoms: _359  and  _361
REMARK  146  A    between atoms: _361  and  _362
REMARK  147  A    between atoms: _361  and  _364
REMARK  148  A    between atoms: _364  and  _365
REMARK  149  A    between atoms: _368  and  _370
REMARK  150  A    between atoms: _370  and  _371
REMARK  151  A    between atoms: _374  and  _376
REMARK  152  A    between atoms: _376  and  _377
REMARK  153  A    between atoms: _376  and  _379
REMARK  154  A    between atoms: _379  and  _380
REMARK  155  A    between atoms: _380  and  _381
REMARK  156  A    between atoms: _381  and  _382
REMARK  157  A    between atoms: _391  and  _393
REMARK  158  A    between atoms: _393  and  _394
REMARK  159  A    between atoms: _393  and  _396
REMARK  160  A    between atoms: _396  and  _397
REMARK  161  A    between atoms: _407  and  _409
REMARK  162  A    between atoms: _409  and  _410
REMARK  163  A    between atoms: _409  and  _412
REMARK  164  A    between atoms: _412  and  _413
REMARK  165  A    between atoms: _418  and  _419
REMARK  166  A    between atoms: _421  and  _423
REMARK  167  A    between atoms: _423  and  _424
REMARK  168  A    between atoms: _423  and  _426
REMARK  169  A    between atoms: _426  and  _427
REMARK  170  A    between atoms: _430  and  _432
REMARK  171  A    between atoms: _432  and  _433
REMARK  172  A    between atoms: _432  and  _435
REMARK  173  A    between atoms: _435  and  _436
REMARK  174  A    between atoms: _436  and  _437
REMARK  175  A    between atoms: _437  and  _438
REMARK  176  A    between atoms: _438  and  _439
REMARK  177  A    between atoms: _443  and  _445
REMARK  178  A    between atoms: _445  and  _446
REMARK  179  A    between atoms: _445  and  _448
REMARK  180  A    between atoms: _448  and  _449
REMARK  181  A    between atoms: _452  and  _454
REMARK  182  A    between atoms: _454  and  _455
REMARK  183  A    between atoms: _454  and  _457
REMARK  184  A    between atoms: _460  and  _462
REMARK  185  A    between atoms: _462  and  _463
REMARK  186  A    between atoms: _462  and  _465
REMARK  187  A    between atoms: _465  and  _466
REMARK  188  A    between atoms: _469  and  _471
REMARK  189  A    between atoms: _471  and  _472
REMARK  190  A    between atoms: _471  and  _474
REMARK  191  A    between atoms: _474  and  _475
REMARK  192  A    between atoms: _477  and  _479
REMARK  193  A    between atoms: _479  and  _480
REMARK  194  A    between atoms: _482  and  _484
REMARK  195  A    between atoms: _484  and  _485
REMARK  196  A    between atoms: _484  and  _487
REMARK  197  A    between atoms: _487  and  _488
REMARK  198  A    between atoms: _491  and  _493
REMARK  199  A    between atoms: _493  and  _494
REMARK  200  A    between atoms: _493  and  _496
REMARK  201  A    between atoms: _496  and  _497
REMARK  202  A    between atoms: _500  and  _502
REMARK  203  A    between atoms: _502  and  _503
REMARK  204  A    between atoms: _502  and  _505
REMARK  205  A    between atoms: _505  and  _506
REMARK  206  A    between atoms: _511  and  _513
REMARK  207  A    between atoms: _513  and  _514
REMARK  208  A    between atoms: _513  and  _516
REMARK  209  A    between atoms: _516  and  _517
REMARK  210  A    between atoms: _520  and  _522
REMARK  211  A    between atoms: _522  and  _523
REMARK  212  A    between atoms: _522  and  _525
REMARK  213  A    between atoms: _525  and  _526
REMARK  214  A    between atoms: _526  and  _527
REMARK  215  A    between atoms: _527  and  _528
REMARK  216  A    between atoms: _537  and  _539
REMARK  217  A    between atoms: _539  and  _540
REMARK  218  A    between atoms: _539  and  _542
REMARK  219  A    between atoms: _542  and  _543
REMARK  220  A    between atoms: _546  and  _548
REMARK  221  A    between atoms: _548  and  _549
REMARK  222  A    between atoms: _551  and  _553
REMARK  223  A    between atoms: _553  and  _554
REMARK  224  A    between atoms: _553  and  _556
REMARK  225  A    between atoms: _556  and  _557
REMARK  226  A    between atoms: _557  and  _558
REMARK  227  A    between atoms: _561  and  _563
REMARK  228  A    between atoms: _563  and  _564
REMARK  229  A    between atoms: _563  and  _566
REMARK  230  A    between atoms: _566  and  _567
REMARK  231  A    between atoms: _567  and  _568
REMARK  232  A    between atoms: _568  and  _569
REMARK  233  A    between atoms: _578  and  _580
REMARK  234  A    between atoms: _580  and  _581
REMARK  235  A    between atoms: _580  and  _583
REMARK  236  A    between atoms: _583  and  _584
REMARK  237  A    between atoms: _584  and  _585
REMARK  238  A    between atoms: _585  and  _586
REMARK  239  A    between atoms: _586  and  _587
REMARK  240  A    between atoms: _591  and  _593
REMARK  241  A    between atoms: _593  and  _594
REMARK  242  A    between atoms: _593  and  _596
REMARK  243  A    between atoms: _596  and  _597
REMARK  244  A    between atoms: _603  and  _605
REMARK  245  A    between atoms: _605  and  _606
REMARK  246  A    between atoms: _609  and  _611
REMARK  247  A    between atoms: _611  and  _612
REMARK  248  A    between atoms: _611  and  _614
REMARK  249  A    between atoms: _614  and  _615
REMARK  250  A    between atoms: _618  and  _620
REMARK  251  A    between atoms: _620  and  _621
REMARK  252  A    between atoms: _620  and  _623
REMARK  253  A    between atoms: _623  and  _624
REMARK  254  A    between atoms: _626  and  _628
REMARK  255  A    between atoms: _628  and  _629
REMARK  256  A    between atoms: _628  and  _631
REMARK  257  A    between atoms: _631  and  _632
REMARK  258  A    between atoms: _632  and  _633
REMARK  259  A    between atoms: _638  and  _640
REMARK  260  A    between atoms: _640  and  _641
REMARK  261  A    between atoms: _640  and  _643
REMARK  262  A    between atoms: _643  and  _644
REMARK  263  A    between atoms: _646  and  _648
REMARK  264  A    between atoms: _648  and  _649
REMARK  265  A    between atoms: _648  and  _651
REMARK  266  A    between atoms: _651  and  _652
REMARK  267  A    between atoms: _654  and  _656
REMARK  268  A    between atoms: _656  and  _657
REMARK  269  A    between atoms: _656  and  _659
REMARK  270  A    between atoms: _659  and  _660
REMARK  271  A    between atoms: _663  and  _665
REMARK  272  A    between atoms: _665  and  _666
REMARK  273  A    between atoms: _668  and  _670
REMARK  274  A    between atoms: _670  and  _671
REMARK  275  A    between atoms: _670  and  _673
REMARK  276  A    between atoms: _673  and  _674
REMARK  277  A    between atoms: _677  and  _679
REMARK  278  A    between atoms: _679  and  _680
REMARK  279  A    between atoms: _679  and  _682
REMARK  280  A    between atoms: _685  and  _687
REMARK  281  A    between atoms: _687  and  _688
REMARK  282  A    between atoms: _690  and  _692
REMARK  283  A    between atoms: _692  and  _693
REMARK  284  A    between atoms: _696  and  _698
REMARK  285  A    between atoms: _698  and  _699
REMARK  286  A    between atoms: _698  and  _701
REMARK                            x       y       z     vdW  Elec       q    Type
REMARK                         _______ _______ _______ _____ _____    ______ ____
ROOT
ATOM      1  O   HOH     1      20.627   8.684  -2.562  0.00  0.00    +0.000 OA
ENDROOT
TORSDOF 0
REMARK  Name = ../refined-set-2016/1fkn/1fkn_pocket.pdb
REMARK  286 active torsions:
REMARK  status: ('A' for Active; 'I' for Inactive)
REMARK    1  A    between atoms: _1  and  _3
REMARK    2  A    between atoms: _3  and  _4
REMARK    3  A    between atoms: _3  and  _6
REMARK    4  A    between atoms: _6  and  _7
REMARK    5  A    between atoms: _7  and  _8
REMARK    6  A    between atoms: _8  and  _9
REMARK    7  A    between atoms: _9  and  _10
REMARK    8  A    between atoms: _14  and  _16
REMARK    9  A    between atoms: _16  and  _17
REMARK   10  A    between atoms: _16  and  _19
REMARK   11  A    between atoms: _19  and  _20
REMARK   12  A    between atoms: _22  and  _24
REMARK   13  A    between atoms: _24  and  _25
REMARK   14  A    between atoms: _27  and  _29
REMARK   15  A    between atoms: _29  and  _30
REMARK   16  A    between atoms: _29  and  _32
REMARK   17  A    between atoms: _32  and  _33
REMARK   18  A    between atoms: _33  and  _34
REMARK   19  A    between atoms: _39  and  _41
REMARK   20  A    between atoms: _41  and  _42
REMARK   21  A    between atoms: _44  and  _46
REMARK   22  A    between atoms: _46  and  _47
REMARK   23  A    between atoms: _46  and  _49
REMARK   24  A    between atoms: _49  and  _50
REMARK   25  A    between atoms: _55  and  _56
REMARK   26  A    between atoms: _58  and  _60
REMARK   27  A    between atoms: _60  and  _61
REMARK   28  A    between atoms: _60  and  _63
REMARK   29  A    between atoms: _63  and  _64
REMARK   30  A    between atoms: _67  and  _69
REMARK   31  A    between atoms: _69  and  _70
REMARK   32  A    between atoms: _69  and  _72
REMARK   33  A    between atoms: _75  and  _77
REMARK   34  A    between atoms: _77  and  _78
REMARK   35  A    between atoms: _77  and  _80
REMARK   36  A    between atoms: _80  and  _81
REMARK   37  A    between atoms: _84  and  _86
REMARK   38  A    between atoms: _86  and  _87
REMARK   39  A    between atoms: _86  and  _89
REMARK   40  A    between atoms: _89  and  _90
REMARK   41  A    between atoms: _93  and  _95
REMARK   42  A    between atoms: _95  and  _96
REMARK   43  A    between atoms: _98  and  _100
REMARK   44  A    between atoms: _100  and  _101
REMARK   45  A    between atoms: _100  and  _103
REMARK   46  A    between atoms: _103  and  _104
REMARK   47  A    between atoms: _106  and  _108
REMARK   48  A    between atoms: _108  and  _109
REMARK   49  A    between atoms: _108  and  _111
REMARK   50  A    between atoms: _111  and  _112
REMARK   51  A    between atoms: _114  and  _116
REMARK   52  A    between atoms: _116  and  _117
REMARK   53  A    between atoms: _116  and  _119
REMARK   54  A    between atoms: _119  and  _120
REMARK   55  A    between atoms: _125  and  _127
REMARK   56  A    between atoms: _127  and  _128
REMARK   57  A    between atoms: _127  and  _130
REMARK   58  A    between atoms: _130  and  _131
REMARK   59  A    between atoms: _136  and  _137
REMARK   60  A    between atoms: _139  and  _141
REMARK   61  A    between atoms: _141  and  _142
REMARK   62  A    between atoms: _141  and  _144
REMARK   63  A    between atoms: _148  and  _149
REMARK   64  A    between atoms: _154  and  _156
REMARK   65  A    between atoms: _156  and  _157
REMARK   66  A    between atoms: _156  and  _159
REMARK   67  A    between atoms: _159  and  _160
REMARK   68  A    between atoms: _165  and  _166
REMARK   69  A    between atoms: _168  and  _170
REMARK   70  A    between atoms: _170  and  _171
REMARK   71  A    between atoms: _170  and  _173
REMARK   72  A    between atoms: _173  and  _174
REMARK   73  A    between atoms: _177  and  _179
REMARK   74  A    between atoms: _179  and  _180
REMARK   75  A    between atoms: _179  and  _182
REMARK   76  A    between atoms: _182  and  _183
REMARK   77  A    between atoms: _183  and  _184
REMARK   78  A    between atoms: _189  and  _191
REMARK   79  A    between atoms: _191  and  _192
REMARK   80  A    between atoms: _194  and  _196
REMARK   81  A    between atoms: _196  and  _197
REMARK   82  A    between atoms: _196  and  _199
REMARK   83  A    between atoms: _199  and  _200
REMARK   84  A    between atoms: _200  and  _201
REMARK   85  A    between atoms: _201  and  _202
REMARK   86  A    between atoms: _202  and  _203
REMARK   87  A    between atoms: _207  and  _209
REMARK   88  A    between atoms: _209  and  _210
REMARK   89  A    between atoms: _209  and  _212
REMARK   90  A    between atoms: _212  and  _213
REMARK   91  A    between atoms: _223  and  _225
REMARK   92  A    between atoms: _225  and  _226
REMARK   93  A    between atoms: _225  and  _228
REMARK   94  A    between atoms: _228  and  _229
REMARK   95  A    between atoms: _232  and  _234
REMARK   96  A    between atoms: _234  and  _235
REMARK   97  A    between atoms: _234  and  _237
REMARK   98  A    between atoms: _237  and  _238
REMARK   99  A    between atoms: _238  and  _239
REMARK  100  A    between atoms: _239  and  _240
REMARK  101  A    between atoms: _240  and  _241
REMARK  102  A    between atoms: _245  and  _247
REMARK  103  A    between atoms: _247  and  _248
REMARK  104  A    between atoms: _247  and  _250
REMARK  105  A    between atoms: _250  and  _251
REMARK  106  A    between atoms: _257  and  _259
REMARK  107  A    between atoms: _259  and  _260
REMARK  108  A    between atoms: _259  and  _262
REMARK  109  A    between atoms: _262  and  _263
REMARK  110  A    between atoms: _269  and  _271
REMARK  111  A    between atoms: _271  and  _272
REMARK  112  A    between atoms: _271  and  _274
REMARK  113  A    between atoms: _274  and  _275
REMARK  114  A    between atoms: _278  and  _280
REMARK  115  A    between atoms: _280  and  _281
REMARK  116  A    between atoms: _280  and  _283
REMARK  117  A    between atoms: _283  and  _284
REMARK  118  A    between atoms: _286  and  _288
REMARK  119  A    between atoms: _288  and  _289
REMARK  120  A    between atoms: _288  and  _291
REMARK  121  A    between atoms: _291  and  _292
REMARK  122  A    between atoms: _302  and  _304
REMARK  123  A    between atoms: _304  and  _305
REMARK  124  A    between atoms: _307  and  _309
REMARK  125  A    between atoms: _309  and  _310
REMARK  126  A    between atoms: _309  and  _312
REMARK  127  A    between atoms: _312  and  _313
REMARK  128  A    between atoms: _316  and  _318
REMARK  129  A    between atoms: _318  and  _319
REMARK  130  A    between atoms: _318  and  _321
REMARK  131  A    between atoms: _321  and  _322
REMARK  132  A    between atoms: _325  and  _327
REMARK  133  A    between atoms: _327  and  _328
REMARK  134  A    between atoms: _330  and  _332
REMARK  135  A    between atoms: _332  and  _333
REMARK  136  A    between atoms: _332  and  _335
REMARK  137  A    between atoms: _335  and  _336
REMARK  138  A    between atoms: _339  and  _341
REMARK  139  A    between atoms: _341  and  _342
REMARK  140  A    between atoms: _345  and  _347
REMARK  141  A    between atoms: _347  and  _348
REMARK  142  A    between atoms: _347  and  _350
REMARK  143  A    between atoms: _350  and  _351
REMARK  144  A    between atoms: _356  and  _357
REMARK  145  A    between atoms: _359  and  _361
REMARK  146  A    between atoms: _361  and  _362
REMARK  147  A    between atoms: _361  and  _364
REMARK  148  A    between atoms: _364  and  _365
REMARK  149  A    between atoms: _368  and  _370
REMARK  150  A    between atoms: _370  and  _371
REMARK  151  A    between atoms: _374  and  _376
REMARK  152  A    between atoms: _376  and  _377
REMARK  153  A    between atoms: _376  and  _379
REMARK  154  A    between atoms: _379  and  _380
REMARK  155  A    between atoms: _380  and  _381
REMARK  156  A    between atoms: _381  and  _382
REMARK  157  A    between atoms: _391  and  _393
REMARK  158  A    between atoms: _393  and  _394
REMARK  159  A    between atoms: _393  and  _396
REMARK  160  A    between atoms: _396  and  _397
REMARK  161  A    between atoms: _407  and  _409
REMARK  162  A    between atoms: _409  and  _410
REMARK  163  A    between atoms: _409  and  _412
REMARK  164  A    between atoms: _412  and  _413
REMARK  165  A    between atoms: _418  and  _419
REMARK  166  A    between atoms: _421  and  _423
REMARK  167  A    between atoms: _423  and  _424
REMARK  168  A    between atoms: _423  and  _426
REMARK  169  A    between atoms: _426  and  _427
REMARK  170  A    between atoms: _430  and  _432
REMARK  171  A    between atoms: _432  and  _433
REMARK  172  A    between atoms: _432  and  _435
REMARK  173  A    between atoms: _435  and  _436
REMARK  174  A    between atoms: _436  and  _437
REMARK  175  A    between atoms: _437  and  _438
REMARK  176  A    between atoms: _438  and  _439
REMARK  177  A    between atoms: _443  and  _445
REMARK  178  A    between atoms: _445  and  _446
REMARK  179  A    between atoms: _445  and  _448
REMARK  180  A    between atoms: _448  and  _449
REMARK  181  A    between atoms: _452  and  _454
REMARK  182  A    between atoms: _454  and  _455
REMARK  183  A    between atoms: _454  and  _457
REMARK  184  A    between atoms: _460  and  _462
REMARK  185  A    between atoms: _462  and  _463
REMARK  186  A    between atoms: _462  and  _465
REMARK  187  A    between atoms: _465  and  _466
REMARK  188  A    between atoms: _469  and  _471
REMARK  189  A    between atoms: _471  and  _472
REMARK  190  A    between atoms: _471  and  _474
REMARK  191  A    between atoms: _474  and  _475
REMARK  192  A    between atoms: _477  and  _479
REMARK  193  A    between atoms: _479  and  _480
REMARK  194  A    between atoms: _482  and  _484
REMARK  195  A    between atoms: _484  and  _485
REMARK  196  A    between atoms: _484  and  _487
REMARK  197  A    between atoms: _487  and  _488
REMARK  198  A    between atoms: _491  and  _493
REMARK  199  A    between atoms: _493  and  _494
REMARK  200  A    between atoms: _493  and  _496
REMARK  201  A    between atoms: _496  and  _497
REMARK  202  A    between atoms: _500  and  _502
REMARK  203  A    between atoms: _502  and  _503
REMARK  204  A    between atoms: _502  and  _505
REMARK  205  A    between atoms: _505  and  _506
REMARK  206  A    between atoms: _511  and  _513
REMARK  207  A    between atoms: _513  and  _514
REMARK  208  A    between atoms: _513  and  _516
REMARK  209  A    between atoms: _516  and  _517
REMARK  210  A    between atoms: _520  and  _522
REMARK  211  A    between atoms: _522  and  _523
REMARK  212  A    between atoms: _522  and  _525
REMARK  213  A    between atoms: _525  and  _526
REMARK  214  A    between atoms: _526  and  _527
REMARK  215  A    between atoms: _527  and  _528
REMARK  216  A    between atoms: _537  and  _539
REMARK  217  A    between atoms: _539  and  _540
REMARK  218  A    between atoms: _539  and  _542
REMARK  219  A    between atoms: _542  and  _543
REMARK  220  A    between atoms: _546  and  _548
REMARK  221  A    between atoms: _548  and  _549
REMARK  222  A    between atoms: _551  and  _553
REMARK  223  A    between atoms: _553  and  _554
REMARK  224  A    between atoms: _553  and  _556
REMARK  225  A    between atoms: _556  and  _557
REMARK  226  A    between atoms: _557  and  _558
REMARK  227  A    between atoms: _561  and  _563
REMARK  228  A    between atoms: _563  and  _564
REMARK  229  A    between atoms: _563  and  _566
REMARK  230  A    between atoms: _566  and  _567
REMARK  231  A    between atoms: _567  and  _568
REMARK  232  A    between atoms: _568  and  _569
REMARK  233  A    between atoms: _578  and  _580
REMARK  234  A    between atoms: _580  and  _581
REMARK  235  A    between atoms: _580  and  _583
REMARK  236  A    between atoms: _583  and  _584
REMARK  237  A    between atoms: _584  and  _585
REMARK  238  A    between atoms: _585  and  _586
REMARK  239  A    between atoms: _586  and  _587
REMARK  240  A    between atoms: _591  and  _593
REMARK  241  A    between atoms: _593  and  _594
REMARK  242  A    between atoms: _593  and  _596
REMARK  243  A    between atoms: _596  and  _597
REMARK  244  A    between atoms: _603  and  _605
REMARK  245  A    between atoms: _605  and  _606
REMARK  246  A    between atoms: _609  and  _611
REMARK  247  A    between atoms: _611  and  _612
REMARK  248  A    between atoms: _611  and  _614
REMARK  249  A    between atoms: _614  and  _615
REMARK  250  A    between atoms: _618  and  _620
REMARK  251  A    between atoms: _620  and  _621
REMARK  252  A    between atoms: _620  and  _623
REMARK  253  A    between atoms: _623  and  _624
REMARK  254  A    between atoms: _626  and  _628
REMARK  255  A    between atoms: _628  and  _629
REMARK  256  A    between atoms: _628  and  _631
REMARK  257  A    between atoms: _631  and  _632
REMARK  258  A    between atoms: _632  and  _633
REMARK  259  A    between atoms: _638  and  _640
REMARK  260  A    between atoms: _640  and  _641
REMARK  261  A    between atoms: _640  and  _643
REMARK  262  A    between atoms: _643  and  _644
REMARK  263  A    between atoms: _646  and  _648
REMARK  264  A    between atoms: _648  and  _649
REMARK  265  A    between atoms: _648  and  _651
REMARK  266  A    between atoms: _651  and  _652
REMARK  267  A    between atoms: _654  and  _656
REMARK  268  A    between atoms: _656  and  _657
REMARK  269  A    between atoms: _656  and  _659
REMARK  270  A    between atoms: _659  and  _660
REMARK  271  A    between atoms: _663  and  _665
REMARK  272  A    between atoms: _665  and  _666
REMARK  273  A    between atoms: _668  and  _670
REMARK  274  A    between atoms: _670  and  _671
REMARK  275  A    between atoms: _670  and  _673
REMARK  276  A    between atoms: _673  and  _674
REMARK  277  A    between atoms: _677  and  _679
REMARK  278  A    between atoms: _679  and  _680
REMARK  279  A    between atoms: _679  and  _682
REMARK  280  A    between atoms: _685  and  _687
REMARK  281  A    between atoms: _687  and  _688
REMARK  282  A    between atoms: _690  and  _692
REMARK  283  A    between atoms: _692  and  _693
REMARK  284  A    between atoms: _696  and  _698
REMARK  285  A    between atoms: _698  and  _699
REMARK  286  A    between atoms: _698  and  _701
REMARK                            x       y       z     vdW  Elec       q    Type
REMARK                         _______ _______ _______ _____ _____    ______ ____
ROOT
ATOM      1  O   HOH     1       8.128 -16.506   9.665  0.00  0.00    +0.000 OA
ENDROOT
TORSDOF 0
REMARK  Name = ../refined-set-2016/1fkn/1fkn_pocket.pdb
REMARK  286 active torsions:
REMARK  status: ('A' for Active; 'I' for Inactive)
REMARK    1  A    between atoms: _1  and  _3
REMARK    2  A    between atoms: _3  and  _4
REMARK    3  A    between atoms: _3  and  _6
REMARK    4  A    between atoms: _6  and  _7
REMARK    5  A    between atoms: _7  and  _8
REMARK    6  A    between atoms: _8  and  _9
REMARK    7  A    between atoms: _9  and  _10
REMARK    8  A    between atoms: _14  and  _16
REMARK    9  A    between atoms: _16  and  _17
REMARK   10  A    between atoms: _16  and  _19
REMARK   11  A    between atoms: _19  and  _20
REMARK   12  A    between atoms: _22  and  _24
REMARK   13  A    between atoms: _24  and  _25
REMARK   14  A    between atoms: _27  and  _29
REMARK   15  A    between atoms: _29  and  _30
REMARK   16  A    between atoms: _29  and  _32
REMARK   17  A    between atoms: _32  and  _33
REMARK   18  A    between atoms: _33  and  _34
REMARK   19  A    between atoms: _39  and  _41
REMARK   20  A    between atoms: _41  and  _42
REMARK   21  A    between atoms: _44  and  _46
REMARK   22  A    between atoms: _46  and  _47
REMARK   23  A    between atoms: _46  and  _49
REMARK   24  A    between atoms: _49  and  _50
REMARK   25  A    between atoms: _55  and  _56
REMARK   26  A    between atoms: _58  and  _60
REMARK   27  A    between atoms: _60  and  _61
REMARK   28  A    between atoms: _60  and  _63
REMARK   29  A    between atoms: _63  and  _64
REMARK   30  A    between atoms: _67  and  _69
REMARK   31  A    between atoms: _69  and  _70
REMARK   32  A    between atoms: _69  and  _72
REMARK   33  A    between atoms: _75  and  _77
REMARK   34  A    between atoms: _77  and  _78
REMARK   35  A    between atoms: _77  and  _80
REMARK   36  A    between atoms: _80  and  _81
REMARK   37  A    between atoms: _84  and  _86
REMARK   38  A    between atoms: _86  and  _87
REMARK   39  A    between atoms: _86  and  _89
REMARK   40  A    between atoms: _89  and  _90
REMARK   41  A    between atoms: _93  and  _95
REMARK   42  A    between atoms: _95  and  _96
REMARK   43  A    between atoms: _98  and  _100
REMARK   44  A    between atoms: _100  and  _101
REMARK   45  A    between atoms: _100  and  _103
REMARK   46  A    between atoms: _103  and  _104
REMARK   47  A    between atoms: _106  and  _108
REMARK   48  A    between atoms: _108  and  _109
REMARK   49  A    between atoms: _108  and  _111
REMARK   50  A    between atoms: _111  and  _112
REMARK   51  A    between atoms: _114  and  _116
REMARK   52  A    between atoms: _116  and  _117
REMARK   53  A    between atoms: _116  and  _119
REMARK   54  A    between atoms: _119  and  _120
REMARK   55  A    between atoms: _125  and  _127
REMARK   56  A    between atoms: _127  and  _128
REMARK   57  A    between atoms: _127  and  _130
REMARK   58  A    between atoms: _130  and  _131
REMARK   59  A    between atoms: _136  and  _137
REMARK   60  A    between atoms: _139  and  _141
REMARK   61  A    between atoms: _141  and  _142
REMARK   62  A    between atoms: _141  and  _144
REMARK   63  A    between atoms: _148  and  _149
REMARK   64  A    between atoms: _154  and  _156
REMARK   65  A    between atoms: _156  and  _157
REMARK   66  A    between atoms: _156  and  _159
REMARK   67  A    between atoms: _159  and  _160
REMARK   68  A    between atoms: _165  and  _166
REMARK   69  A    between atoms: _168  and  _170
REMARK   70  A    between atoms: _170  and  _171
REMARK   71  A    between atoms: _170  and  _173
REMARK   72  A    between atoms: _173  and  _174
REMARK   73  A    between atoms: _177  and  _179
REMARK   74  A    between atoms: _179  and  _180
REMARK   75  A    between atoms: _179  and  _182
REMARK   76  A    between atoms: _182  and  _183
REMARK   77  A    between atoms: _183  and  _184
REMARK   78  A    between atoms: _189  and  _191
REMARK   79  A    between atoms: _191  and  _192
REMARK   80  A    between atoms: _194  and  _196
REMARK   81  A    between atoms: _196  and  _197
REMARK   82  A    between atoms: _196  and  _199
REMARK   83  A    between atoms: _199  and  _200
REMARK   84  A    between atoms: _200  and  _201
REMARK   85  A    between atoms: _201  and  _202
REMARK   86  A    between atoms: _202  and  _203
REMARK   87  A    between atoms: _207  and  _209
REMARK   88  A    between atoms: _209  and  _210
REMARK   89  A    between atoms: _209  and  _212
REMARK   90  A    between atoms: _212  and  _213
REMARK   91  A    between atoms: _223  and  _225
REMARK   92  A    between atoms: _225  and  _226
REMARK   93  A    between atoms: _225  and  _228
REMARK   94  A    between atoms: _228  and  _229
REMARK   95  A    between atoms: _232  and  _234
REMARK   96  A    between atoms: _234  and  _235
REMARK   97  A    between atoms: _234  and  _237
REMARK   98  A    between atoms: _237  and  _238
REMARK   99  A    between atoms: _238  and  _239
REMARK  100  A    between atoms: _239  and  _240
REMARK  101  A    between atoms: _240  and  _241
REMARK  102  A    between atoms: _245  and  _247
REMARK  103  A    between atoms: _247  and  _248
REMARK  104  A    between atoms: _247  and  _250
REMARK  105  A    between atoms: _250  and  _251
REMARK  106  A    between atoms: _257  and  _259
REMARK  107  A    between atoms: _259  and  _260
REMARK  108  A    between atoms: _259  and  _262
REMARK  109  A    between atoms: _262  and  _263
REMARK  110  A    between atoms: _269  and  _271
REMARK  111  A    between atoms: _271  and  _272
REMARK  112  A    between atoms: _271  and  _274
REMARK  113  A    between atoms: _274  and  _275
REMARK  114  A    between atoms: _278  and  _280
REMARK  115  A    between atoms: _280  and  _281
REMARK  116  A    between atoms: _280  and  _283
REMARK  117  A    between atoms: _283  and  _284
REMARK  118  A    between atoms: _286  and  _288
REMARK  119  A    between atoms: _288  and  _289
REMARK  120  A    between atoms: _288  and  _291
REMARK  121  A    between atoms: _291  and  _292
REMARK  122  A    between atoms: _302  and  _304
REMARK  123  A    between atoms: _304  and  _305
REMARK  124  A    between atoms: _307  and  _309
REMARK  125  A    between atoms: _309  and  _310
REMARK  126  A    between atoms: _309  and  _312
REMARK  127  A    between atoms: _312  and  _313
REMARK  128  A    between atoms: _316  and  _318
REMARK  129  A    between atoms: _318  and  _319
REMARK  130  A    between atoms: _318  and  _321
REMARK  131  A    between atoms: _321  and  _322
REMARK  132  A    between atoms: _325  and  _327
REMARK  133  A    between atoms: _327  and  _328
REMARK  134  A    between atoms: _330  and  _332
REMARK  135  A    between atoms: _332  and  _333
REMARK  136  A    between atoms: _332  and  _335
REMARK  137  A    between atoms: _335  and  _336
REMARK  138  A    between atoms: _339  and  _341
REMARK  139  A    between atoms: _341  and  _342
REMARK  140  A    between atoms: _345  and  _347
REMARK  141  A    between atoms: _347  and  _348
REMARK  142  A    between atoms: _347  and  _350
REMARK  143  A    between atoms: _350  and  _351
REMARK  144  A    between atoms: _356  and  _357
REMARK  145  A    between atoms: _359  and  _361
REMARK  146  A    between atoms: _361  and  _362
REMARK  147  A    between atoms: _361  and  _364
REMARK  148  A    between atoms: _364  and  _365
REMARK  149  A    between atoms: _368  and  _370
REMARK  150  A    between atoms: _370  and  _371
REMARK  151  A    between atoms: _374  and  _376
REMARK  152  A    between atoms: _376  and  _377
REMARK  153  A    between atoms: _376  and  _379
REMARK  154  A    between atoms: _379  and  _380
REMARK  155  A    between atoms: _380  and  _381
REMARK  156  A    between atoms: _381  and  _382
REMARK  157  A    between atoms: _391  and  _393
REMARK  158  A    between atoms: _393  and  _394
REMARK  159  A    between atoms: _393  and  _396
REMARK  160  A    between atoms: _396  and  _397
REMARK  161  A    between atoms: _407  and  _409
REMARK  162  A    between atoms: _409  and  _410
REMARK  163  A    between atoms: _409  and  _412
REMARK  164  A    between atoms: _412  and  _413
REMARK  165  A    between atoms: _418  and  _419
REMARK  166  A    between atoms: _421  and  _423
REMARK  167  A    between atoms: _423  and  _424
REMARK  168  A    between atoms: _423  and  _426
REMARK  169  A    between atoms: _426  and  _427
REMARK  170  A    between atoms: _430  and  _432
REMARK  171  A    between atoms: _432  and  _433
REMARK  172  A    between atoms: _432  and  _435
REMARK  173  A    between atoms: _435  and  _436
REMARK  174  A    between atoms: _436  and  _437
REMARK  175  A    between atoms: _437  and  _438
REMARK  176  A    between atoms: _438  and  _439
REMARK  177  A    between atoms: _443  and  _445
REMARK  178  A    between atoms: _445  and  _446
REMARK  179  A    between atoms: _445  and  _448
REMARK  180  A    between atoms: _448  and  _449
REMARK  181  A    between atoms: _452  and  _454
REMARK  182  A    between atoms: _454  and  _455
REMARK  183  A    between atoms: _454  and  _457
REMARK  184  A    between atoms: _460  and  _462
REMARK  185  A    between atoms: _462  and  _463
REMARK  186  A    between atoms: _462  and  _465
REMARK  187  A    between atoms: _465  and  _466
REMARK  188  A    between atoms: _469  and  _471
REMARK  189  A    between atoms: _471  and  _472
REMARK  190  A    between atoms: _471  and  _474
REMARK  191  A    between atoms: _474  and  _475
REMARK  192  A    between atoms: _477  and  _479
REMARK  193  A    between atoms: _479  and  _480
REMARK  194  A    between atoms: _482  and  _484
REMARK  195  A    between atoms: _484  and  _485
REMARK  196  A    between atoms: _484  and  _487
REMARK  197  A    between atoms: _487  and  _488
REMARK  198  A    between atoms: _491  and  _493
REMARK  199  A    between atoms: _493  and  _494
REMARK  200  A    between atoms: _493  and  _496
REMARK  201  A    between atoms: _496  and  _497
REMARK  202  A    between atoms: _500  and  _502
REMARK  203  A    between atoms: _502  and  _503
REMARK  204  A    between atoms: _502  and  _505
REMARK  205  A    between atoms: _505  and  _506
REMARK  206  A    between atoms: _511  and  _513
REMARK  207  A    between atoms: _513  and  _514
REMARK  208  A    between atoms: _513  and  _516
REMARK  209  A    between atoms: _516  and  _517
REMARK  210  A    between atoms: _520  and  _522
REMARK  211  A    between atoms: _522  and  _523
REMARK  212  A    between atoms: _522  and  _525
REMARK  213  A    between atoms: _525  and  _526
REMARK  214  A    between atoms: _526  and  _527
REMARK  215  A    between atoms: _527  and  _528
REMARK  216  A    between atoms: _537  and  _539
REMARK  217  A    between atoms: _539  and  _540
REMARK  218  A    between atoms: _539  and  _542
REMARK  219  A    between atoms: _542  and  _543
REMARK  220  A    between atoms: _546  and  _548
REMARK  221  A    between atoms: _548  and  _549
REMARK  222  A    between atoms: _551  and  _553
REMARK  223  A    between atoms: _553  and  _554
REMARK  224  A    between atoms: _553  and  _556
REMARK  225  A    between atoms: _556  and  _557
REMARK  226  A    between atoms: _557  and  _558
REMARK  227  A    between atoms: _561  and  _563
REMARK  228  A    between atoms: _563  and  _564
REMARK  229  A    between atoms: _563  and  _566
REMARK  230  A    between atoms: _566  and  _567
REMARK  231  A    between atoms: _567  and  _568
REMARK  232  A    between atoms: _568  and  _569
REMARK  233  A    between atoms: _578  and  _580
REMARK  234  A    between atoms: _580  and  _581
REMARK  235  A    between atoms: _580  and  _583
REMARK  236  A    between atoms: _583  and  _584
REMARK  237  A    between atoms: _584  and  _585
REMARK  238  A    between atoms: _585  and  _586
REMARK  239  A    between atoms: _586  and  _587
REMARK  240  A    between atoms: _591  and  _593
REMARK  241  A    between atoms: _593  and  _594
REMARK  242  A    between atoms: _593  and  _596
REMARK  243  A    between atoms: _596  and  _597
REMARK  244  A    between atoms: _603  and  _605
REMARK  245  A    between atoms: _605  and  _606
REMARK  246  A    between atoms: _609  and  _611
REMARK  247  A    between atoms: _611  and  _612
REMARK  248  A    between atoms: _611  and  _614
REMARK  249  A    between atoms: _614  and  _615
REMARK  250  A    between atoms: _618  and  _620
REMARK  251  A    between atoms: _620  and  _621
REMARK  252  A    between atoms: _620  and  _623
REMARK  253  A    between atoms: _623  and  _624
REMARK  254  A    between atoms: _626  and  _628
REMARK  255  A    between atoms: _628  and  _629
REMARK  256  A    between atoms: _628  and  _631
REMARK  257  A    between atoms: _631  and  _632
REMARK  258  A    between atoms: _632  and  _633
REMARK  259  A    between atoms: _638  and  _640
REMARK  260  A    between atoms: _640  and  _641
REMARK  261  A    between atoms: _640  and  _643
REMARK  262  A    between atoms: _643  and  _644
REMARK  263  A    between atoms: _646  and  _648
REMARK  264  A    between atoms: _648  and  _649
REMARK  265  A    between atoms: _648  and  _651
REMARK  266  A    between atoms: _651  and  _652
REMARK  267  A    between atoms: _654  and  _656
REMARK  268  A    between atoms: _656  and  _657
REMARK  269  A    between atoms: _656  and  _659
REMARK  270  A    between atoms: _659  and  _660
REMARK  271  A    between atoms: _663  and  _665
REMARK  272  A    between atoms: _665  and  _666
REMARK  273  A    between atoms: _668  and  _670
REMARK  274  A    between atoms: _670  and  _671
REMARK  275  A    between atoms: _670  and  _673
REMARK  276  A    between atoms: _673  and  _674
REMARK  277  A    between atoms: _677  and  _679
REMARK  278  A    between atoms: _679  and  _680
REMARK  279  A    between atoms: _679  and  _682
REMARK  280  A    between atoms: _685  and  _687
REMARK  281  A    between atoms: _687  and  _688
REMARK  282  A    between atoms: _690  and  _692
REMARK  283  A    between atoms: _692  and  _693
REMARK  284  A    between atoms: _696  and  _698
REMARK  285  A    between atoms: _698  and  _699
REMARK  286  A    between atoms: _698  and  _701
REMARK                            x       y       z     vdW  Elec       q    Type
REMARK                         _______ _______ _______ _____ _____    ______ ____
ROOT
ATOM      1  O   HOH     1       9.261 -12.747  -7.290  0.00  0.00    +0.000 OA
ENDROOT
TORSDOF 0
REMARK  Name = ../refined-set-2016/1fkn/1fkn_pocket.pdb
REMARK  286 active torsions:
REMARK  status: ('A' for Active; 'I' for Inactive)
REMARK    1  A    between atoms: _1  and  _3
REMARK    2  A    between atoms: _3  and  _4
REMARK    3  A    between atoms: _3  and  _6
REMARK    4  A    between atoms: _6  and  _7
REMARK    5  A    between atoms: _7  and  _8
REMARK    6  A    between atoms: _8  and  _9
REMARK    7  A    between atoms: _9  and  _10
REMARK    8  A    between atoms: _14  and  _16
REMARK    9  A    between atoms: _16  and  _17
REMARK   10  A    between atoms: _16  and  _19
REMARK   11  A    between atoms: _19  and  _20
REMARK   12  A    between atoms: _22  and  _24
REMARK   13  A    between atoms: _24  and  _25
REMARK   14  A    between atoms: _27  and  _29
REMARK   15  A    between atoms: _29  and  _30
REMARK   16  A    between atoms: _29  and  _32
REMARK   17  A    between atoms: _32  and  _33
REMARK   18  A    between atoms: _33  and  _34
REMARK   19  A    between atoms: _39  and  _41
REMARK   20  A    between atoms: _41  and  _42
REMARK   21  A    between atoms: _44  and  _46
REMARK   22  A    between atoms: _46  and  _47
REMARK   23  A    between atoms: _46  and  _49
REMARK   24  A    between atoms: _49  and  _50
REMARK   25  A    between atoms: _55  and  _56
REMARK   26  A    between atoms: _58  and  _60
REMARK   27  A    between atoms: _60  and  _61
REMARK   28  A    between atoms: _60  and  _63
REMARK   29  A    between atoms: _63  and  _64
REMARK   30  A    between atoms: _67  and  _69
REMARK   31  A    between atoms: _69  and  _70
REMARK   32  A    between atoms: _69  and  _72
REMARK   33  A    between atoms: _75  and  _77
REMARK   34  A    between atoms: _77  and  _78
REMARK   35  A    between atoms: _77  and  _80
REMARK   36  A    between atoms: _80  and  _81
REMARK   37  A    between atoms: _84  and  _86
REMARK   38  A    between atoms: _86  and  _87
REMARK   39  A    between atoms: _86  and  _89
REMARK   40  A    between atoms: _89  and  _90
REMARK   41  A    between atoms: _93  and  _95
REMARK   42  A    between atoms: _95  and  _96
REMARK   43  A    between atoms: _98  and  _100
REMARK   44  A    between atoms: _100  and  _101
REMARK   45  A    between atoms: _100  and  _103
REMARK   46  A    between atoms: _103  and  _104
REMARK   47  A    between atoms: _106  and  _108
REMARK   48  A    between atoms: _108  and  _109
REMARK   49  A    between atoms: _108  and  _111
REMARK   50  A    between atoms: _111  and  _112
REMARK   51  A    between atoms: _114  and  _116
REMARK   52  A    between atoms: _116  and  _117
REMARK   53  A    between atoms: _116  and  _119
REMARK   54  A    between atoms: _119  and  _120
REMARK   55  A    between atoms: _125  and  _127
REMARK   56  A    between atoms: _127  and  _128
REMARK   57  A    between atoms: _127  and  _130
REMARK   58  A    between atoms: _130  and  _131
REMARK   59  A    between atoms: _136  and  _137
REMARK   60  A    between atoms: _139  and  _141
REMARK   61  A    between atoms: _141  and  _142
REMARK   62  A    between atoms: _141  and  _144
REMARK   63  A    between atoms: _148  and  _149
REMARK   64  A    between atoms: _154  and  _156
REMARK   65  A    between atoms: _156  and  _157
REMARK   66  A    between atoms: _156  and  _159
REMARK   67  A    between atoms: _159  and  _160
REMARK   68  A    between atoms: _165  and  _166
REMARK   69  A    between atoms: _168  and  _170
REMARK   70  A    between atoms: _170  and  _171
REMARK   71  A    between atoms: _170  and  _173
REMARK   72  A    between atoms: _173  and  _174
REMARK   73  A    between atoms: _177  and  _179
REMARK   74  A    between atoms: _179  and  _180
REMARK   75  A    between atoms: _179  and  _182
REMARK   76  A    between atoms: _182  and  _183
REMARK   77  A    between atoms: _183  and  _184
REMARK   78  A    between atoms: _189  and  _191
REMARK   79  A    between atoms: _191  and  _192
REMARK   80  A    between atoms: _194  and  _196
REMARK   81  A    between atoms: _196  and  _197
REMARK   82  A    between atoms: _196  and  _199
REMARK   83  A    between atoms: _199  and  _200
REMARK   84  A    between atoms: _200  and  _201
REMARK   85  A    between atoms: _201  and  _202
REMARK   86  A    between atoms: _202  and  _203
REMARK   87  A    between atoms: _207  and  _209
REMARK   88  A    between atoms: _209  and  _210
REMARK   89  A    between atoms: _209  and  _212
REMARK   90  A    between atoms: _212  and  _213
REMARK   91  A    between atoms: _223  and  _225
REMARK   92  A    between atoms: _225  and  _226
REMARK   93  A    between atoms: _225  and  _228
REMARK   94  A    between atoms: _228  and  _229
REMARK   95  A    between atoms: _232  and  _234
REMARK   96  A    between atoms: _234  and  _235
REMARK   97  A    between atoms: _234  and  _237
REMARK   98  A    between atoms: _237  and  _238
REMARK   99  A    between atoms: _238  and  _239
REMARK  100  A    between atoms: _239  and  _240
REMARK  101  A    between atoms: _240  and  _241
REMARK  102  A    between atoms: _245  and  _247
REMARK  103  A    between atoms: _247  and  _248
REMARK  104  A    between atoms: _247  and  _250
REMARK  105  A    between atoms: _250  and  _251
REMARK  106  A    between atoms: _257  and  _259
REMARK  107  A    between atoms: _259  and  _260
REMARK  108  A    between atoms: _259  and  _262
REMARK  109  A    between atoms: _262  and  _263
REMARK  110  A    between atoms: _269  and  _271
REMARK  111  A    between atoms: _271  and  _272
REMARK  112  A    between atoms: _271  and  _274
REMARK  113  A    between atoms: _274  and  _275
REMARK  114  A    between atoms: _278  and  _280
REMARK  115  A    between atoms: _280  and  _281
REMARK  116  A    between atoms: _280  and  _283
REMARK  117  A    between atoms: _283  and  _284
REMARK  118  A    between atoms: _286  and  _288
REMARK  119  A    between atoms: _288  and  _289
REMARK  120  A    between atoms: _288  and  _291
REMARK  121  A    between atoms: _291  and  _292
REMARK  122  A    between atoms: _302  and  _304
REMARK  123  A    between atoms: _304  and  _305
REMARK  124  A    between atoms: _307  and  _309
REMARK  125  A    between atoms: _309  and  _310
REMARK  126  A    between atoms: _309  and  _312
REMARK  127  A    between atoms: _312  and  _313
REMARK  128  A    between atoms: _316  and  _318
REMARK  129  A    between atoms: _318  and  _319
REMARK  130  A    between atoms: _318  and  _321
REMARK  131  A    between atoms: _321  and  _322
REMARK  132  A    between atoms: _325  and  _327
REMARK  133  A    between atoms: _327  and  _328
REMARK  134  A    between atoms: _330  and  _332
REMARK  135  A    between atoms: _332  and  _333
REMARK  136  A    between atoms: _332  and  _335
REMARK  137  A    between atoms: _335  and  _336
REMARK  138  A    between atoms: _339  and  _341
REMARK  139  A    between atoms: _341  and  _342
REMARK  140  A    between atoms: _345  and  _347
REMARK  141  A    between atoms: _347  and  _348
REMARK  142  A    between atoms: _347  and  _350
REMARK  143  A    between atoms: _350  and  _351
REMARK  144  A    between atoms: _356  and  _357
REMARK  145  A    between atoms: _359  and  _361
REMARK  146  A    between atoms: _361  and  _362
REMARK  147  A    between atoms: _361  and  _364
REMARK  148  A    between atoms: _364  and  _365
REMARK  149  A    between atoms: _368  and  _370
REMARK  150  A    between atoms: _370  and  _371
REMARK  151  A    between atoms: _374  and  _376
REMARK  152  A    between atoms: _376  and  _377
REMARK  153  A    between atoms: _376  and  _379
REMARK  154  A    between atoms: _379  and  _380
REMARK  155  A    between atoms: _380  and  _381
REMARK  156  A    between atoms: _381  and  _382
REMARK  157  A    between atoms: _391  and  _393
REMARK  158  A    between atoms: _393  and  _394
REMARK  159  A    between atoms: _393  and  _396
REMARK  160  A    between atoms: _396  and  _397
REMARK  161  A    between atoms: _407  and  _409
REMARK  162  A    between atoms: _409  and  _410
REMARK  163  A    between atoms: _409  and  _412
REMARK  164  A    between atoms: _412  and  _413
REMARK  165  A    between atoms: _418  and  _419
REMARK  166  A    between atoms: _421  and  _423
REMARK  167  A    between atoms: _423  and  _424
REMARK  168  A    between atoms: _423  and  _426
REMARK  169  A    between atoms: _426  and  _427
REMARK  170  A    between atoms: _430  and  _432
REMARK  171  A    between atoms: _432  and  _433
REMARK  172  A    between atoms: _432  and  _435
REMARK  173  A    between atoms: _435  and  _436
REMARK  174  A    between atoms: _436  and  _437
REMARK  175  A    between atoms: _437  and  _438
REMARK  176  A    between atoms: _438  and  _439
REMARK  177  A    between atoms: _443  and  _445
REMARK  178  A    between atoms: _445  and  _446
REMARK  179  A    between atoms: _445  and  _448
REMARK  180  A    between atoms: _448  and  _449
REMARK  181  A    between atoms: _452  and  _454
REMARK  182  A    between atoms: _454  and  _455
REMARK  183  A    between atoms: _454  and  _457
REMARK  184  A    between atoms: _460  and  _462
REMARK  185  A    between atoms: _462  and  _463
REMARK  186  A    between atoms: _462  and  _465
REMARK  187  A    between atoms: _465  and  _466
REMARK  188  A    between atoms: _469  and  _471
REMARK  189  A    between atoms: _471  and  _472
REMARK  190  A    between atoms: _471  and  _474
REMARK  191  A    between atoms: _474  and  _475
REMARK  192  A    between atoms: _477  and  _479
REMARK  193  A    between atoms: _479  and  _480
REMARK  194  A    between atoms: _482  and  _484
REMARK  195  A    between atoms: _484  and  _485
REMARK  196  A    between atoms: _484  and  _487
REMARK  197  A    between atoms: _487  and  _488
REMARK  198  A    between atoms: _491  and  _493
REMARK  199  A    between atoms: _493  and  _494
REMARK  200  A    between atoms: _493  and  _496
REMARK  201  A    between atoms: _496  and  _497
REMARK  202  A    between atoms: _500  and  _502
REMARK  203  A    between atoms: _502  and  _503
REMARK  204  A    between atoms: _502  and  _505
REMARK  205  A    between atoms: _505  and  _506
REMARK  206  A    between atoms: _511  and  _513
REMARK  207  A    between atoms: _513  and  _514
REMARK  208  A    between atoms: _513  and  _516
REMARK  209  A    between atoms: _516  and  _517
REMARK  210  A    between atoms: _520  and  _522
REMARK  211  A    between atoms: _522  and  _523
REMARK  212  A    between atoms: _522  and  _525
REMARK  213  A    between atoms: _525  and  _526
REMARK  214  A    between atoms: _526  and  _527
REMARK  215  A    between atoms: _527  and  _528
REMARK  216  A    between atoms: _537  and  _539
REMARK  217  A    between atoms: _539  and  _540
REMARK  218  A    between atoms: _539  and  _542
REMARK  219  A    between atoms: _542  and  _543
REMARK  220  A    between atoms: _546  and  _548
REMARK  221  A    between atoms: _548  and  _549
REMARK  222  A    between atoms: _551  and  _553
REMARK  223  A    between atoms: _553  and  _554
REMARK  224  A    between atoms: _553  and  _556
REMARK  225  A    between atoms: _556  and  _557
REMARK  226  A    between atoms: _557  and  _558
REMARK  227  A    between atoms: _561  and  _563
REMARK  228  A    between atoms: _563  and  _564
REMARK  229  A    between atoms: _563  and  _566
REMARK  230  A    between atoms: _566  and  _567
REMARK  231  A    between atoms: _567  and  _568
REMARK  232  A    between atoms: _568  and  _569
REMARK  233  A    between atoms: _578  and  _580
REMARK  234  A    between atoms: _580  and  _581
REMARK  235  A    between atoms: _580  and  _583
REMARK  236  A    between atoms: _583  and  _584
REMARK  237  A    between atoms: _584  and  _585
REMARK  238  A    between atoms: _585  and  _586
REMARK  239  A    between atoms: _586  and  _587
REMARK  240  A    between atoms: _591  and  _593
REMARK  241  A    between atoms: _593  and  _594
REMARK  242  A    between atoms: _593  and  _596
REMARK  243  A    between atoms: _596  and  _597
REMARK  244  A    between atoms: _603  and  _605
REMARK  245  A    between atoms: _605  and  _606
REMARK  246  A    between atoms: _609  and  _611
REMARK  247  A    between atoms: _611  and  _612
REMARK  248  A    between atoms: _611  and  _614
REMARK  249  A    between atoms: _614  and  _615
REMARK  250  A    between atoms: _618  and  _620
REMARK  251  A    between atoms: _620  and  _621
REMARK  252  A    between atoms: _620  and  _623
REMARK  253  A    between atoms: _623  and  _624
REMARK  254  A    between atoms: _626  and  _628
REMARK  255  A    between atoms: _628  and  _629
REMARK  256  A    between atoms: _628  and  _631
REMARK  257  A    between atoms: _631  and  _632
REMARK  258  A    between atoms: _632  and  _633
REMARK  259  A    between atoms: _638  and  _640
REMARK  260  A    between atoms: _640  and  _641
REMARK  261  A    between atoms: _640  and  _643
REMARK  262  A    between atoms: _643  and  _644
REMARK  263  A    between atoms: _646  and  _648
REMARK  264  A    between atoms: _648  and  _649
REMARK  265  A    between atoms: _648  and  _651
REMARK  266  A    between atoms: _651  and  _652
REMARK  267  A    between atoms: _654  and  _656
REMARK  268  A    between atoms: _656  and  _657
REMARK  269  A    between atoms: _656  and  _659
REMARK  270  A    between atoms: _659  and  _660
REMARK  271  A    between atoms: _663  and  _665
REMARK  272  A    between atoms: _665  and  _666
REMARK  273  A    between atoms: _668  and  _670
REMARK  274  A    between atoms: _670  and  _671
REMARK  275  A    between atoms: _670  and  _673
REMARK  276  A    between atoms: _673  and  _674
REMARK  277  A    between atoms: _677  and  _679
REMARK  278  A    between atoms: _679  and  _680
REMARK  279  A    between atoms: _679  and  _682
REMARK  280  A    between atoms: _685  and  _687
REMARK  281  A    between atoms: _687  and  _688
REMARK  282  A    between atoms: _690  and  _692
REMARK  283  A    between atoms: _692  and  _693
REMARK  284  A    between atoms: _696  and  _698
REMARK  285  A    between atoms: _698  and  _699
REMARK  286  A    between atoms: _698  and  _701
REMARK                            x       y       z     vdW  Elec       q    Type
REMARK                         _______ _______ _______ _____ _____    ______ ____
ROOT
ATOM      1  O   HOH     1       7.111   9.569   0.171  0.00  0.00    +0.000 OA
ENDROOT
TORSDOF 0
REMARK  Name = ../refined-set-2016/1fkn/1fkn_pocket.pdb
REMARK  286 active torsions:
REMARK  status: ('A' for Active; 'I' for Inactive)
REMARK    1  A    between atoms: _1  and  _3
REMARK    2  A    between atoms: _3  and  _4
REMARK    3  A    between atoms: _3  and  _6
REMARK    4  A    between atoms: _6  and  _7
REMARK    5  A    between atoms: _7  and  _8
REMARK    6  A    between atoms: _8  and  _9
REMARK    7  A    between atoms: _9  and  _10
REMARK    8  A    between atoms: _14  and  _16
REMARK    9  A    between atoms: _16  and  _17
REMARK   10  A    between atoms: _16  and  _19
REMARK   11  A    between atoms: _19  and  _20
REMARK   12  A    between atoms: _22  and  _24
REMARK   13  A    between atoms: _24  and  _25
REMARK   14  A    between atoms: _27  and  _29
REMARK   15  A    between atoms: _29  and  _30
REMARK   16  A    between atoms: _29  and  _32
REMARK   17  A    between atoms: _32  and  _33
REMARK   18  A    between atoms: _33  and  _34
REMARK   19  A    between atoms: _39  and  _41
REMARK   20  A    between atoms: _41  and  _42
REMARK   21  A    between atoms: _44  and  _46
REMARK   22  A    between atoms: _46  and  _47
REMARK   23  A    between atoms: _46  and  _49
REMARK   24  A    between atoms: _49  and  _50
REMARK   25  A    between atoms: _55  and  _56
REMARK   26  A    between atoms: _58  and  _60
REMARK   27  A    between atoms: _60  and  _61
REMARK   28  A    between atoms: _60  and  _63
REMARK   29  A    between atoms: _63  and  _64
REMARK   30  A    between atoms: _67  and  _69
REMARK   31  A    between atoms: _69  and  _70
REMARK   32  A    between atoms: _69  and  _72
REMARK   33  A    between atoms: _75  and  _77
REMARK   34  A    between atoms: _77  and  _78
REMARK   35  A    between atoms: _77  and  _80
REMARK   36  A    between atoms: _80  and  _81
REMARK   37  A    between atoms: _84  and  _86
REMARK   38  A    between atoms: _86  and  _87
REMARK   39  A    between atoms: _86  and  _89
REMARK   40  A    between atoms: _89  and  _90
REMARK   41  A    between atoms: _93  and  _95
REMARK   42  A    between atoms: _95  and  _96
REMARK   43  A    between atoms: _98  and  _100
REMARK   44  A    between atoms: _100  and  _101
REMARK   45  A    between atoms: _100  and  _103
REMARK   46  A    between atoms: _103  and  _104
REMARK   47  A    between atoms: _106  and  _108
REMARK   48  A    between atoms: _108  and  _109
REMARK   49  A    between atoms: _108  and  _111
REMARK   50  A    between atoms: _111  and  _112
REMARK   51  A    between atoms: _114  and  _116
REMARK   52  A    between atoms: _116  and  _117
REMARK   53  A    between atoms: _116  and  _119
REMARK   54  A    between atoms: _119  and  _120
REMARK   55  A    between atoms: _125  and  _127
REMARK   56  A    between atoms: _127  and  _128
REMARK   57  A    between atoms: _127  and  _130
REMARK   58  A    between atoms: _130  and  _131
REMARK   59  A    between atoms: _136  and  _137
REMARK   60  A    between atoms: _139  and  _141
REMARK   61  A    between atoms: _141  and  _142
REMARK   62  A    between atoms: _141  and  _144
REMARK   63  A    between atoms: _148  and  _149
REMARK   64  A    between atoms: _154  and  _156
REMARK   65  A    between atoms: _156  and  _157
REMARK   66  A    between atoms: _156  and  _159
REMARK   67  A    between atoms: _159  and  _160
REMARK   68  A    between atoms: _165  and  _166
REMARK   69  A    between atoms: _168  and  _170
REMARK   70  A    between atoms: _170  and  _171
REMARK   71  A    between atoms: _170  and  _173
REMARK   72  A    between atoms: _173  and  _174
REMARK   73  A    between atoms: _177  and  _179
REMARK   74  A    between atoms: _179  and  _180
REMARK   75  A    between atoms: _179  and  _182
REMARK   76  A    between atoms: _182  and  _183
REMARK   77  A    between atoms: _183  and  _184
REMARK   78  A    between atoms: _189  and  _191
REMARK   79  A    between atoms: _191  and  _192
REMARK   80  A    between atoms: _194  and  _196
REMARK   81  A    between atoms: _196  and  _197
REMARK   82  A    between atoms: _196  and  _199
REMARK   83  A    between atoms: _199  and  _200
REMARK   84  A    between atoms: _200  and  _201
REMARK   85  A    between atoms: _201  and  _202
REMARK   86  A    between atoms: _202  and  _203
REMARK   87  A    between atoms: _207  and  _209
REMARK   88  A    between atoms: _209  and  _210
REMARK   89  A    between atoms: _209  and  _212
REMARK   90  A    between atoms: _212  and  _213
REMARK   91  A    between atoms: _223  and  _225
REMARK   92  A    between atoms: _225  and  _226
REMARK   93  A    between atoms: _225  and  _228
REMARK   94  A    between atoms: _228  and  _229
REMARK   95  A    between atoms: _232  and  _234
REMARK   96  A    between atoms: _234  and  _235
REMARK   97  A    between atoms: _234  and  _237
REMARK   98  A    between atoms: _237  and  _238
REMARK   99  A    between atoms: _238  and  _239
REMARK  100  A    between atoms: _239  and  _240
REMARK  101  A    between atoms: _240  and  _241
REMARK  102  A    between atoms: _245  and  _247
REMARK  103  A    between atoms: _247  and  _248
REMARK  104  A    between atoms: _247  and  _250
REMARK  105  A    between atoms: _250  and  _251
REMARK  106  A    between atoms: _257  and  _259
REMARK  107  A    between atoms: _259  and  _260
REMARK  108  A    between atoms: _259  and  _262
REMARK  109  A    between atoms: _262  and  _263
REMARK  110  A    between atoms: _269  and  _271
REMARK  111  A    between atoms: _271  and  _272
REMARK  112  A    between atoms: _271  and  _274
REMARK  113  A    between atoms: _274  and  _275
REMARK  114  A    between atoms: _278  and  _280
REMARK  115  A    between atoms: _280  and  _281
REMARK  116  A    between atoms: _280  and  _283
REMARK  117  A    between atoms: _283  and  _284
REMARK  118  A    between atoms: _286  and  _288
REMARK  119  A    between atoms: _288  and  _289
REMARK  120  A    between atoms: _288  and  _291
REMARK  121  A    between atoms: _291  and  _292
REMARK  122  A    between atoms: _302  and  _304
REMARK  123  A    between atoms: _304  and  _305
REMARK  124  A    between atoms: _307  and  _309
REMARK  125  A    between atoms: _309  and  _310
REMARK  126  A    between atoms: _309  and  _312
REMARK  127  A    between atoms: _312  and  _313
REMARK  128  A    between atoms: _316  and  _318
REMARK  129  A    between atoms: _318  and  _319
REMARK  130  A    between atoms: _318  and  _321
REMARK  131  A    between atoms: _321  and  _322
REMARK  132  A    between atoms: _325  and  _327
REMARK  133  A    between atoms: _327  and  _328
REMARK  134  A    between atoms: _330  and  _332
REMARK  135  A    between atoms: _332  and  _333
REMARK  136  A    between atoms: _332  and  _335
REMARK  137  A    between atoms: _335  and  _336
REMARK  138  A    between atoms: _339  and  _341
REMARK  139  A    between atoms: _341  and  _342
REMARK  140  A    between atoms: _345  and  _347
REMARK  141  A    between atoms: _347  and  _348
REMARK  142  A    between atoms: _347  and  _350
REMARK  143  A    between atoms: _350  and  _351
REMARK  144  A    between atoms: _356  and  _357
REMARK  145  A    between atoms: _359  and  _361
REMARK  146  A    between atoms: _361  and  _362
REMARK  147  A    between atoms: _361  and  _364
REMARK  148  A    between atoms: _364  and  _365
REMARK  149  A    between atoms: _368  and  _370
REMARK  150  A    between atoms: _370  and  _371
REMARK  151  A    between atoms: _374  and  _376
REMARK  152  A    between atoms: _376  and  _377
REMARK  153  A    between atoms: _376  and  _379
REMARK  154  A    between atoms: _379  and  _380
REMARK  155  A    between atoms: _380  and  _381
REMARK  156  A    between atoms: _381  and  _382
REMARK  157  A    between atoms: _391  and  _393
REMARK  158  A    between atoms: _393  and  _394
REMARK  159  A    between atoms: _393  and  _396
REMARK  160  A    between atoms: _396  and  _397
REMARK  161  A    between atoms: _407  and  _409
REMARK  162  A    between atoms: _409  and  _410
REMARK  163  A    between atoms: _409  and  _412
REMARK  164  A    between atoms: _412  and  _413
REMARK  165  A    between atoms: _418  and  _419
REMARK  166  A    between atoms: _421  and  _423
REMARK  167  A    between atoms: _423  and  _424
REMARK  168  A    between atoms: _423  and  _426
REMARK  169  A    between atoms: _426  and  _427
REMARK  170  A    between atoms: _430  and  _432
REMARK  171  A    between atoms: _432  and  _433
REMARK  172  A    between atoms: _432  and  _435
REMARK  173  A    between atoms: _435  and  _436
REMARK  174  A    between atoms: _436  and  _437
REMARK  175  A    between atoms: _437  and  _438
REMARK  176  A    between atoms: _438  and  _439
REMARK  177  A    between atoms: _443  and  _445
REMARK  178  A    between atoms: _445  and  _446
REMARK  179  A    between atoms: _445  and  _448
REMARK  180  A    between atoms: _448  and  _449
REMARK  181  A    between atoms: _452  and  _454
REMARK  182  A    between atoms: _454  and  _455
REMARK  183  A    between atoms: _454  and  _457
REMARK  184  A    between atoms: _460  and  _462
REMARK  185  A    between atoms: _462  and  _463
REMARK  186  A    between atoms: _462  and  _465
REMARK  187  A    between atoms: _465  and  _466
REMARK  188  A    between atoms: _469  and  _471
REMARK  189  A    between atoms: _471  and  _472
REMARK  190  A    between atoms: _471  and  _474
REMARK  191  A    between atoms: _474  and  _475
REMARK  192  A    between atoms: _477  and  _479
REMARK  193  A    between atoms: _479  and  _480
REMARK  194  A    between atoms: _482  and  _484
REMARK  195  A    between atoms: _484  and  _485
REMARK  196  A    between atoms: _484  and  _487
REMARK  197  A    between atoms: _487  and  _488
REMARK  198  A    between atoms: _491  and  _493
REMARK  199  A    between atoms: _493  and  _494
REMARK  200  A    between atoms: _493  and  _496
REMARK  201  A    between atoms: _496  and  _497
REMARK  202  A    between atoms: _500  and  _502
REMARK  203  A    between atoms: _502  and  _503
REMARK  204  A    between atoms: _502  and  _505
REMARK  205  A    between atoms: _505  and  _506
REMARK  206  A    between atoms: _511  and  _513
REMARK  207  A    between atoms: _513  and  _514
REMARK  208  A    between atoms: _513  and  _516
REMARK  209  A    between atoms: _516  and  _517
REMARK  210  A    between atoms: _520  and  _522
REMARK  211  A    between atoms: _522  and  _523
REMARK  212  A    between atoms: _522  and  _525
REMARK  213  A    between atoms: _525  and  _526
REMARK  214  A    between atoms: _526  and  _527
REMARK  215  A    between atoms: _527  and  _528
REMARK  216  A    between atoms: _537  and  _539
REMARK  217  A    between atoms: _539  and  _540
REMARK  218  A    between atoms: _539  and  _542
REMARK  219  A    between atoms: _542  and  _543
REMARK  220  A    between atoms: _546  and  _548
REMARK  221  A    between atoms: _548  and  _549
REMARK  222  A    between atoms: _551  and  _553
REMARK  223  A    between atoms: _553  and  _554
REMARK  224  A    between atoms: _553  and  _556
REMARK  225  A    between atoms: _556  and  _557
REMARK  226  A    between atoms: _557  and  _558
REMARK  227  A    between atoms: _561  and  _563
REMARK  228  A    between atoms: _563  and  _564
REMARK  229  A    between atoms: _563  and  _566
REMARK  230  A    between atoms: _566  and  _567
REMARK  231  A    between atoms: _567  and  _568
REMARK  232  A    between atoms: _568  and  _569
REMARK  233  A    between atoms: _578  and  _580
REMARK  234  A    between atoms: _580  and  _581
REMARK  235  A    between atoms: _580  and  _583
REMARK  236  A    between atoms: _583  and  _584
REMARK  237  A    between atoms: _584  and  _585
REMARK  238  A    between atoms: _585  and  _586
REMARK  239  A    between atoms: _586  and  _587
REMARK  240  A    between atoms: _591  and  _593
REMARK  241  A    between atoms: _593  and  _594
REMARK  242  A    between atoms: _593  and  _596
REMARK  243  A    between atoms: _596  and  _597
REMARK  244  A    between atoms: _603  and  _605
REMARK  245  A    between atoms: _605  and  _606
REMARK  246  A    between atoms: _609  and  _611
REMARK  247  A    between atoms: _611  and  _612
REMARK  248  A    between atoms: _611  and  _614
REMARK  249  A    between atoms: _614  and  _615
REMARK  250  A    between atoms: _618  and  _620
REMARK  251  A    between atoms: _620  and  _621
REMARK  252  A    between atoms: _620  and  _623
REMARK  253  A    between atoms: _623  and  _624
REMARK  254  A    between atoms: _626  and  _628
REMARK  255  A    between atoms: _628  and  _629
REMARK  256  A    between atoms: _628  and  _631
REMARK  257  A    between atoms: _631  and  _632
REMARK  258  A    between atoms: _632  and  _633
REMARK  259  A    between atoms: _638  and  _640
REMARK  260  A    between atoms: _640  and  _641
REMARK  261  A    between atoms: _640  and  _643
REMARK  262  A    between atoms: _643  and  _644
REMARK  263  A    between atoms: _646  and  _648
REMARK  264  A    between atoms: _648  and  _649
REMARK  265  A    between atoms: _648  and  _651
REMARK  266  A    between atoms: _651  and  _652
REMARK  267  A    between atoms: _654  and  _656
REMARK  268  A    between atoms: _656  and  _657
REMARK  269  A    between atoms: _656  and  _659
REMARK  270  A    between atoms: _659  and  _660
REMARK  271  A    between atoms: _663  and  _665
REMARK  272  A    between atoms: _665  and  _666
REMARK  273  A    between atoms: _668  and  _670
REMARK  274  A    between atoms: _670  and  _671
REMARK  275  A    between atoms: _670  and  _673
REMARK  276  A    between atoms: _673  and  _674
REMARK  277  A    between atoms: _677  and  _679
REMARK  278  A    between atoms: _679  and  _680
REMARK  279  A    between atoms: _679  and  _682
REMARK  280  A    between atoms: _685  and  _687
REMARK  281  A    between atoms: _687  and  _688
REMARK  282  A    between atoms: _690  and  _692
REMARK  283  A    between atoms: _692  and  _693
REMARK  284  A    between atoms: _696  and  _698
REMARK  285  A    between atoms: _698  and  _699
REMARK  286  A    between atoms: _698  and  _701
REMARK                            x       y       z     vdW  Elec       q    Type
REMARK                         _______ _______ _______ _____ _____    ______ ____
ROOT
ATOM      1  O   HOH     1       9.618  -7.083  -6.222  0.00  0.00    +0.000 OA
ENDROOT
TORSDOF 0
REMARK  Name = ../refined-set-2016/1fkn/1fkn_pocket.pdb
REMARK  286 active torsions:
REMARK  status: ('A' for Active; 'I' for Inactive)
REMARK    1  A    between atoms: _1  and  _3
REMARK    2  A    between atoms: _3  and  _4
REMARK    3  A    between atoms: _3  and  _6
REMARK    4  A    between atoms: _6  and  _7
REMARK    5  A    between atoms: _7  and  _8
REMARK    6  A    between atoms: _8  and  _9
REMARK    7  A    between atoms: _9  and  _10
REMARK    8  A    between atoms: _14  and  _16
REMARK    9  A    between atoms: _16  and  _17
REMARK   10  A    between atoms: _16  and  _19
REMARK   11  A    between atoms: _19  and  _20
REMARK   12  A    between atoms: _22  and  _24
REMARK   13  A    between atoms: _24  and  _25
REMARK   14  A    between atoms: _27  and  _29
REMARK   15  A    between atoms: _29  and  _30
REMARK   16  A    between atoms: _29  and  _32
REMARK   17  A    between atoms: _32  and  _33
REMARK   18  A    between atoms: _33  and  _34
REMARK   19  A    between atoms: _39  and  _41
REMARK   20  A    between atoms: _41  and  _42
REMARK   21  A    between atoms: _44  and  _46
REMARK   22  A    between atoms: _46  and  _47
REMARK   23  A    between atoms: _46  and  _49
REMARK   24  A    between atoms: _49  and  _50
REMARK   25  A    between atoms: _55  and  _56
REMARK   26  A    between atoms: _58  and  _60
REMARK   27  A    between atoms: _60  and  _61
REMARK   28  A    between atoms: _60  and  _63
REMARK   29  A    between atoms: _63  and  _64
REMARK   30  A    between atoms: _67  and  _69
REMARK   31  A    between atoms: _69  and  _70
REMARK   32  A    between atoms: _69  and  _72
REMARK   33  A    between atoms: _75  and  _77
REMARK   34  A    between atoms: _77  and  _78
REMARK   35  A    between atoms: _77  and  _80
REMARK   36  A    between atoms: _80  and  _81
REMARK   37  A    between atoms: _84  and  _86
REMARK   38  A    between atoms: _86  and  _87
REMARK   39  A    between atoms: _86  and  _89
REMARK   40  A    between atoms: _89  and  _90
REMARK   41  A    between atoms: _93  and  _95
REMARK   42  A    between atoms: _95  and  _96
REMARK   43  A    between atoms: _98  and  _100
REMARK   44  A    between atoms: _100  and  _101
REMARK   45  A    between atoms: _100  and  _103
REMARK   46  A    between atoms: _103  and  _104
REMARK   47  A    between atoms: _106  and  _108
REMARK   48  A    between atoms: _108  and  _109
REMARK   49  A    between atoms: _108  and  _111
REMARK   50  A    between atoms: _111  and  _112
REMARK   51  A    between atoms: _114  and  _116
REMARK   52  A    between atoms: _116  and  _117
REMARK   53  A    between atoms: _116  and  _119
REMARK   54  A    between atoms: _119  and  _120
REMARK   55  A    between atoms: _125  and  _127
REMARK   56  A    between atoms: _127  and  _128
REMARK   57  A    between atoms: _127  and  _130
REMARK   58  A    between atoms: _130  and  _131
REMARK   59  A    between atoms: _136  and  _137
REMARK   60  A    between atoms: _139  and  _141
REMARK   61  A    between atoms: _141  and  _142
REMARK   62  A    between atoms: _141  and  _144
REMARK   63  A    between atoms: _148  and  _149
REMARK   64  A    between atoms: _154  and  _156
REMARK   65  A    between atoms: _156  and  _157
REMARK   66  A    between atoms: _156  and  _159
REMARK   67  A    between atoms: _159  and  _160
REMARK   68  A    between atoms: _165  and  _166
REMARK   69  A    between atoms: _168  and  _170
REMARK   70  A    between atoms: _170  and  _171
REMARK   71  A    between atoms: _170  and  _173
REMARK   72  A    between atoms: _173  and  _174
REMARK   73  A    between atoms: _177  and  _179
REMARK   74  A    between atoms: _179  and  _180
REMARK   75  A    between atoms: _179  and  _182
REMARK   76  A    between atoms: _182  and  _183
REMARK   77  A    between atoms: _183  and  _184
REMARK   78  A    between atoms: _189  and  _191
REMARK   79  A    between atoms: _191  and  _192
REMARK   80  A    between atoms: _194  and  _196
REMARK   81  A    between atoms: _196  and  _197
REMARK   82  A    between atoms: _196  and  _199
REMARK   83  A    between atoms: _199  and  _200
REMARK   84  A    between atoms: _200  and  _201
REMARK   85  A    between atoms: _201  and  _202
REMARK   86  A    between atoms: _202  and  _203
REMARK   87  A    between atoms: _207  and  _209
REMARK   88  A    between atoms: _209  and  _210
REMARK   89  A    between atoms: _209  and  _212
REMARK   90  A    between atoms: _212  and  _213
REMARK   91  A    between atoms: _223  and  _225
REMARK   92  A    between atoms: _225  and  _226
REMARK   93  A    between atoms: _225  and  _228
REMARK   94  A    between atoms: _228  and  _229
REMARK   95  A    between atoms: _232  and  _234
REMARK   96  A    between atoms: _234  and  _235
REMARK   97  A    between atoms: _234  and  _237
REMARK   98  A    between atoms: _237  and  _238
REMARK   99  A    between atoms: _238  and  _239
REMARK  100  A    between atoms: _239  and  _240
REMARK  101  A    between atoms: _240  and  _241
REMARK  102  A    between atoms: _245  and  _247
REMARK  103  A    between atoms: _247  and  _248
REMARK  104  A    between atoms: _247  and  _250
REMARK  105  A    between atoms: _250  and  _251
REMARK  106  A    between atoms: _257  and  _259
REMARK  107  A    between atoms: _259  and  _260
REMARK  108  A    between atoms: _259  and  _262
REMARK  109  A    between atoms: _262  and  _263
REMARK  110  A    between atoms: _269  and  _271
REMARK  111  A    between atoms: _271  and  _272
REMARK  112  A    between atoms: _271  and  _274
REMARK  113  A    between atoms: _274  and  _275
REMARK  114  A    between atoms: _278  and  _280
REMARK  115  A    between atoms: _280  and  _281
REMARK  116  A    between atoms: _280  and  _283
REMARK  117  A    between atoms: _283  and  _284
REMARK  118  A    between atoms: _286  and  _288
REMARK  119  A    between atoms: _288  and  _289
REMARK  120  A    between atoms: _288  and  _291
REMARK  121  A    between atoms: _291  and  _292
REMARK  122  A    between atoms: _302  and  _304
REMARK  123  A    between atoms: _304  and  _305
REMARK  124  A    between atoms: _307  and  _309
REMARK  125  A    between atoms: _309  and  _310
REMARK  126  A    between atoms: _309  and  _312
REMARK  127  A    between atoms: _312  and  _313
REMARK  128  A    between atoms: _316  and  _318
REMARK  129  A    between atoms: _318  and  _319
REMARK  130  A    between atoms: _318  and  _321
REMARK  131  A    between atoms: _321  and  _322
REMARK  132  A    between atoms: _325  and  _327
REMARK  133  A    between atoms: _327  and  _328
REMARK  134  A    between atoms: _330  and  _332
REMARK  135  A    between atoms: _332  and  _333
REMARK  136  A    between atoms: _332  and  _335
REMARK  137  A    between atoms: _335  and  _336
REMARK  138  A    between atoms: _339  and  _341
REMARK  139  A    between atoms: _341  and  _342
REMARK  140  A    between atoms: _345  and  _347
REMARK  141  A    between atoms: _347  and  _348
REMARK  142  A    between atoms: _347  and  _350
REMARK  143  A    between atoms: _350  and  _351
REMARK  144  A    between atoms: _356  and  _357
REMARK  145  A    between atoms: _359  and  _361
REMARK  146  A    between atoms: _361  and  _362
REMARK  147  A    between atoms: _361  and  _364
REMARK  148  A    between atoms: _364  and  _365
REMARK  149  A    between atoms: _368  and  _370
REMARK  150  A    between atoms: _370  and  _371
REMARK  151  A    between atoms: _374  and  _376
REMARK  152  A    between atoms: _376  and  _377
REMARK  153  A    between atoms: _376  and  _379
REMARK  154  A    between atoms: _379  and  _380
REMARK  155  A    between atoms: _380  and  _381
REMARK  156  A    between atoms: _381  and  _382
REMARK  157  A    between atoms: _391  and  _393
REMARK  158  A    between atoms: _393  and  _394
REMARK  159  A    between atoms: _393  and  _396
REMARK  160  A    between atoms: _396  and  _397
REMARK  161  A    between atoms: _407  and  _409
REMARK  162  A    between atoms: _409  and  _410
REMARK  163  A    between atoms: _409  and  _412
REMARK  164  A    between atoms: _412  and  _413
REMARK  165  A    between atoms: _418  and  _419
REMARK  166  A    between atoms: _421  and  _423
REMARK  167  A    between atoms: _423  and  _424
REMARK  168  A    between atoms: _423  and  _426
REMARK  169  A    between atoms: _426  and  _427
REMARK  170  A    between atoms: _430  and  _432
REMARK  171  A    between atoms: _432  and  _433
REMARK  172  A    between atoms: _432  and  _435
REMARK  173  A    between atoms: _435  and  _436
REMARK  174  A    between atoms: _436  and  _437
REMARK  175  A    between atoms: _437  and  _438
REMARK  176  A    between atoms: _438  and  _439
REMARK  177  A    between atoms: _443  and  _445
REMARK  178  A    between atoms: _445  and  _446
REMARK  179  A    between atoms: _445  and  _448
REMARK  180  A    between atoms: _448  and  _449
REMARK  181  A    between atoms: _452  and  _454
REMARK  182  A    between atoms: _454  and  _455
REMARK  183  A    between atoms: _454  and  _457
REMARK  184  A    between atoms: _460  and  _462
REMARK  185  A    between atoms: _462  and  _463
REMARK  186  A    between atoms: _462  and  _465
REMARK  187  A    between atoms: _465  and  _466
REMARK  188  A    between atoms: _469  and  _471
REMARK  189  A    between atoms: _471  and  _472
REMARK  190  A    between atoms: _471  and  _474
REMARK  191  A    between atoms: _474  and  _475
REMARK  192  A    between atoms: _477  and  _479
REMARK  193  A    between atoms: _479  and  _480
REMARK  194  A    between atoms: _482  and  _484
REMARK  195  A    between atoms: _484  and  _485
REMARK  196  A    between atoms: _484  and  _487
REMARK  197  A    between atoms: _487  and  _488
REMARK  198  A    between atoms: _491  and  _493
REMARK  199  A    between atoms: _493  and  _494
REMARK  200  A    between atoms: _493  and  _496
REMARK  201  A    between atoms: _496  and  _497
REMARK  202  A    between atoms: _500  and  _502
REMARK  203  A    between atoms: _502  and  _503
REMARK  204  A    between atoms: _502  and  _505
REMARK  205  A    between atoms: _505  and  _506
REMARK  206  A    between atoms: _511  and  _513
REMARK  207  A    between atoms: _513  and  _514
REMARK  208  A    between atoms: _513  and  _516
REMARK  209  A    between atoms: _516  and  _517
REMARK  210  A    between atoms: _520  and  _522
REMARK  211  A    between atoms: _522  and  _523
REMARK  212  A    between atoms: _522  and  _525
REMARK  213  A    between atoms: _525  and  _526
REMARK  214  A    between atoms: _526  and  _527
REMARK  215  A    between atoms: _527  and  _528
REMARK  216  A    between atoms: _537  and  _539
REMARK  217  A    between atoms: _539  and  _540
REMARK  218  A    between atoms: _539  and  _542
REMARK  219  A    between atoms: _542  and  _543
REMARK  220  A    between atoms: _546  and  _548
REMARK  221  A    between atoms: _548  and  _549
REMARK  222  A    between atoms: _551  and  _553
REMARK  223  A    between atoms: _553  and  _554
REMARK  224  A    between atoms: _553  and  _556
REMARK  225  A    between atoms: _556  and  _557
REMARK  226  A    between atoms: _557  and  _558
REMARK  227  A    between atoms: _561  and  _563
REMARK  228  A    between atoms: _563  and  _564
REMARK  229  A    between atoms: _563  and  _566
REMARK  230  A    between atoms: _566  and  _567
REMARK  231  A    between atoms: _567  and  _568
REMARK  232  A    between atoms: _568  and  _569
REMARK  233  A    between atoms: _578  and  _580
REMARK  234  A    between atoms: _580  and  _581
REMARK  235  A    between atoms: _580  and  _583
REMARK  236  A    between atoms: _583  and  _584
REMARK  237  A    between atoms: _584  and  _585
REMARK  238  A    between atoms: _585  and  _586
REMARK  239  A    between atoms: _586  and  _587
REMARK  240  A    between atoms: _591  and  _593
REMARK  241  A    between atoms: _593  and  _594
REMARK  242  A    between atoms: _593  and  _596
REMARK  243  A    between atoms: _596  and  _597
REMARK  244  A    between atoms: _603  and  _605
REMARK  245  A    between atoms: _605  and  _606
REMARK  246  A    between atoms: _609  and  _611
REMARK  247  A    between atoms: _611  and  _612
REMARK  248  A    between atoms: _611  and  _614
REMARK  249  A    between atoms: _614  and  _615
REMARK  250  A    between atoms: _618  and  _620
REMARK  251  A    between atoms: _620  and  _621
REMARK  252  A    between atoms: _620  and  _623
REMARK  253  A    between atoms: _623  and  _624
REMARK  254  A    between atoms: _626  and  _628
REMARK  255  A    between atoms: _628  and  _629
REMARK  256  A    between atoms: _628  and  _631
REMARK  257  A    between atoms: _631  and  _632
REMARK  258  A    between atoms: _632  and  _633
REMARK  259  A    between atoms: _638  and  _640
REMARK  260  A    between atoms: _640  and  _641
REMARK  261  A    between atoms: _640  and  _643
REMARK  262  A    between atoms: _643  and  _644
REMARK  263  A    between atoms: _646  and  _648
REMARK  264  A    between atoms: _648  and  _649
REMARK  265  A    between atoms: _648  and  _651
REMARK  266  A    between atoms: _651  and  _652
REMARK  267  A    between atoms: _654  and  _656
REMARK  268  A    between atoms: _656  and  _657
REMARK  269  A    between atoms: _656  and  _659
REMARK  270  A    between atoms: _659  and  _660
REMARK  271  A    between atoms: _663  and  _665
REMARK  272  A    between atoms: _665  and  _666
REMARK  273  A    between atoms: _668  and  _670
REMARK  274  A    between atoms: _670  and  _671
REMARK  275  A    between atoms: _670  and  _673
REMARK  276  A    between atoms: _673  and  _674
REMARK  277  A    between atoms: _677  and  _679
REMARK  278  A    between atoms: _679  and  _680
REMARK  279  A    between atoms: _679  and  _682
REMARK  280  A    between atoms: _685  and  _687
REMARK  281  A    between atoms: _687  and  _688
REMARK  282  A    between atoms: _690  and  _692
REMARK  283  A    between atoms: _692  and  _693
REMARK  284  A    between atoms: _696  and  _698
REMARK  285  A    between atoms: _698  and  _699
REMARK  286  A    between atoms: _698  and  _701
REMARK                            x       y       z     vdW  Elec       q    Type
REMARK                         _______ _______ _______ _____ _____    ______ ____
ROOT
ATOM      1  O   HOH     1       4.664   9.837  -5.075  0.00  0.00    +0.000 OA
ENDROOT
TORSDOF 0
REMARK  Name = ../refined-set-2016/1fkn/1fkn_pocket.pdb
REMARK  286 active torsions:
REMARK  status: ('A' for Active; 'I' for Inactive)
REMARK    1  A    between atoms: _1  and  _3
REMARK    2  A    between atoms: _3  and  _4
REMARK    3  A    between atoms: _3  and  _6
REMARK    4  A    between atoms: _6  and  _7
REMARK    5  A    between atoms: _7  and  _8
REMARK    6  A    between atoms: _8  and  _9
REMARK    7  A    between atoms: _9  and  _10
REMARK    8  A    between atoms: _14  and  _16
REMARK    9  A    between atoms: _16  and  _17
REMARK   10  A    between atoms: _16  and  _19
REMARK   11  A    between atoms: _19  and  _20
REMARK   12  A    between atoms: _22  and  _24
REMARK   13  A    between atoms: _24  and  _25
REMARK   14  A    between atoms: _27  and  _29
REMARK   15  A    between atoms: _29  and  _30
REMARK   16  A    between atoms: _29  and  _32
REMARK   17  A    between atoms: _32  and  _33
REMARK   18  A    between atoms: _33  and  _34
REMARK   19  A    between atoms: _39  and  _41
REMARK   20  A    between atoms: _41  and  _42
REMARK   21  A    between atoms: _44  and  _46
REMARK   22  A    between atoms: _46  and  _47
REMARK   23  A    between atoms: _46  and  _49
REMARK   24  A    between atoms: _49  and  _50
REMARK   25  A    between atoms: _55  and  _56
REMARK   26  A    between atoms: _58  and  _60
REMARK   27  A    between atoms: _60  and  _61
REMARK   28  A    between atoms: _60  and  _63
REMARK   29  A    between atoms: _63  and  _64
REMARK   30  A    between atoms: _67  and  _69
REMARK   31  A    between atoms: _69  and  _70
REMARK   32  A    between atoms: _69  and  _72
REMARK   33  A    between atoms: _75  and  _77
REMARK   34  A    between atoms: _77  and  _78
REMARK   35  A    between atoms: _77  and  _80
REMARK   36  A    between atoms: _80  and  _81
REMARK   37  A    between atoms: _84  and  _86
REMARK   38  A    between atoms: _86  and  _87
REMARK   39  A    between atoms: _86  and  _89
REMARK   40  A    between atoms: _89  and  _90
REMARK   41  A    between atoms: _93  and  _95
REMARK   42  A    between atoms: _95  and  _96
REMARK   43  A    between atoms: _98  and  _100
REMARK   44  A    between atoms: _100  and  _101
REMARK   45  A    between atoms: _100  and  _103
REMARK   46  A    between atoms: _103  and  _104
REMARK   47  A    between atoms: _106  and  _108
REMARK   48  A    between atoms: _108  and  _109
REMARK   49  A    between atoms: _108  and  _111
REMARK   50  A    between atoms: _111  and  _112
REMARK   51  A    between atoms: _114  and  _116
REMARK   52  A    between atoms: _116  and  _117
REMARK   53  A    between atoms: _116  and  _119
REMARK   54  A    between atoms: _119  and  _120
REMARK   55  A    between atoms: _125  and  _127
REMARK   56  A    between atoms: _127  and  _128
REMARK   57  A    between atoms: _127  and  _130
REMARK   58  A    between atoms: _130  and  _131
REMARK   59  A    between atoms: _136  and  _137
REMARK   60  A    between atoms: _139  and  _141
REMARK   61  A    between atoms: _141  and  _142
REMARK   62  A    between atoms: _141  and  _144
REMARK   63  A    between atoms: _148  and  _149
REMARK   64  A    between atoms: _154  and  _156
REMARK   65  A    between atoms: _156  and  _157
REMARK   66  A    between atoms: _156  and  _159
REMARK   67  A    between atoms: _159  and  _160
REMARK   68  A    between atoms: _165  and  _166
REMARK   69  A    between atoms: _168  and  _170
REMARK   70  A    between atoms: _170  and  _171
REMARK   71  A    between atoms: _170  and  _173
REMARK   72  A    between atoms: _173  and  _174
REMARK   73  A    between atoms: _177  and  _179
REMARK   74  A    between atoms: _179  and  _180
REMARK   75  A    between atoms: _179  and  _182
REMARK   76  A    between atoms: _182  and  _183
REMARK   77  A    between atoms: _183  and  _184
REMARK   78  A    between atoms: _189  and  _191
REMARK   79  A    between atoms: _191  and  _192
REMARK   80  A    between atoms: _194  and  _196
REMARK   81  A    between atoms: _196  and  _197
REMARK   82  A    between atoms: _196  and  _199
REMARK   83  A    between atoms: _199  and  _200
REMARK   84  A    between atoms: _200  and  _201
REMARK   85  A    between atoms: _201  and  _202
REMARK   86  A    between atoms: _202  and  _203
REMARK   87  A    between atoms: _207  and  _209
REMARK   88  A    between atoms: _209  and  _210
REMARK   89  A    between atoms: _209  and  _212
REMARK   90  A    between atoms: _212  and  _213
REMARK   91  A    between atoms: _223  and  _225
REMARK   92  A    between atoms: _225  and  _226
REMARK   93  A    between atoms: _225  and  _228
REMARK   94  A    between atoms: _228  and  _229
REMARK   95  A    between atoms: _232  and  _234
REMARK   96  A    between atoms: _234  and  _235
REMARK   97  A    between atoms: _234  and  _237
REMARK   98  A    between atoms: _237  and  _238
REMARK   99  A    between atoms: _238  and  _239
REMARK  100  A    between atoms: _239  and  _240
REMARK  101  A    between atoms: _240  and  _241
REMARK  102  A    between atoms: _245  and  _247
REMARK  103  A    between atoms: _247  and  _248
REMARK  104  A    between atoms: _247  and  _250
REMARK  105  A    between atoms: _250  and  _251
REMARK  106  A    between atoms: _257  and  _259
REMARK  107  A    between atoms: _259  and  _260
REMARK  108  A    between atoms: _259  and  _262
REMARK  109  A    between atoms: _262  and  _263
REMARK  110  A    between atoms: _269  and  _271
REMARK  111  A    between atoms: _271  and  _272
REMARK  112  A    between atoms: _271  and  _274
REMARK  113  A    between atoms: _274  and  _275
REMARK  114  A    between atoms: _278  and  _280
REMARK  115  A    between atoms: _280  and  _281
REMARK  116  A    between atoms: _280  and  _283
REMARK  117  A    between atoms: _283  and  _284
REMARK  118  A    between atoms: _286  and  _288
REMARK  119  A    between atoms: _288  and  _289
REMARK  120  A    between atoms: _288  and  _291
REMARK  121  A    between atoms: _291  and  _292
REMARK  122  A    between atoms: _302  and  _304
REMARK  123  A    between atoms: _304  and  _305
REMARK  124  A    between atoms: _307  and  _309
REMARK  125  A    between atoms: _309  and  _310
REMARK  126  A    between atoms: _309  and  _312
REMARK  127  A    between atoms: _312  and  _313
REMARK  128  A    between atoms: _316  and  _318
REMARK  129  A    between atoms: _318  and  _319
REMARK  130  A    between atoms: _318  and  _321
REMARK  131  A    between atoms: _321  and  _322
REMARK  132  A    between atoms: _325  and  _327
REMARK  133  A    between atoms: _327  and  _328
REMARK  134  A    between atoms: _330  and  _332
REMARK  135  A    between atoms: _332  and  _333
REMARK  136  A    between atoms: _332  and  _335
REMARK  137  A    between atoms: _335  and  _336
REMARK  138  A    between atoms: _339  and  _341
REMARK  139  A    between atoms: _341  and  _342
REMARK  140  A    between atoms: _345  and  _347
REMARK  141  A    between atoms: _347  and  _348
REMARK  142  A    between atoms: _347  and  _350
REMARK  143  A    between atoms: _350  and  _351
REMARK  144  A    between atoms: _356  and  _357
REMARK  145  A    between atoms: _359  and  _361
REMARK  146  A    between atoms: _361  and  _362
REMARK  147  A    between atoms: _361  and  _364
REMARK  148  A    between atoms: _364  and  _365
REMARK  149  A    between atoms: _368  and  _370
REMARK  150  A    between atoms: _370  and  _371
REMARK  151  A    between atoms: _374  and  _376
REMARK  152  A    between atoms: _376  and  _377
REMARK  153  A    between atoms: _376  and  _379
REMARK  154  A    between atoms: _379  and  _380
REMARK  155  A    between atoms: _380  and  _381
REMARK  156  A    between atoms: _381  and  _382
REMARK  157  A    between atoms: _391  and  _393
REMARK  158  A    between atoms: _393  and  _394
REMARK  159  A    between atoms: _393  and  _396
REMARK  160  A    between atoms: _396  and  _397
REMARK  161  A    between atoms: _407  and  _409
REMARK  162  A    between atoms: _409  and  _410
REMARK  163  A    between atoms: _409  and  _412
REMARK  164  A    between atoms: _412  and  _413
REMARK  165  A    between atoms: _418  and  _419
REMARK  166  A    between atoms: _421  and  _423
REMARK  167  A    between atoms: _423  and  _424
REMARK  168  A    between atoms: _423  and  _426
REMARK  169  A    between atoms: _426  and  _427
REMARK  170  A    between atoms: _430  and  _432
REMARK  171  A    between atoms: _432  and  _433
REMARK  172  A    between atoms: _432  and  _435
REMARK  173  A    between atoms: _435  and  _436
REMARK  174  A    between atoms: _436  and  _437
REMARK  175  A    between atoms: _437  and  _438
REMARK  176  A    between atoms: _438  and  _439
REMARK  177  A    between atoms: _443  and  _445
REMARK  178  A    between atoms: _445  and  _446
REMARK  179  A    between atoms: _445  and  _448
REMARK  180  A    between atoms: _448  and  _449
REMARK  181  A    between atoms: _452  and  _454
REMARK  182  A    between atoms: _454  and  _455
REMARK  183  A    between atoms: _454  and  _457
REMARK  184  A    between atoms: _460  and  _462
REMARK  185  A    between atoms: _462  and  _463
REMARK  186  A    between atoms: _462  and  _465
REMARK  187  A    between atoms: _465  and  _466
REMARK  188  A    between atoms: _469  and  _471
REMARK  189  A    between atoms: _471  and  _472
REMARK  190  A    between atoms: _471  and  _474
REMARK  191  A    between atoms: _474  and  _475
REMARK  192  A    between atoms: _477  and  _479
REMARK  193  A    between atoms: _479  and  _480
REMARK  194  A    between atoms: _482  and  _484
REMARK  195  A    between atoms: _484  and  _485
REMARK  196  A    between atoms: _484  and  _487
REMARK  197  A    between atoms: _487  and  _488
REMARK  198  A    between atoms: _491  and  _493
REMARK  199  A    between atoms: _493  and  _494
REMARK  200  A    between atoms: _493  and  _496
REMARK  201  A    between atoms: _496  and  _497
REMARK  202  A    between atoms: _500  and  _502
REMARK  203  A    between atoms: _502  and  _503
REMARK  204  A    between atoms: _502  and  _505
REMARK  205  A    between atoms: _505  and  _506
REMARK  206  A    between atoms: _511  and  _513
REMARK  207  A    between atoms: _513  and  _514
REMARK  208  A    between atoms: _513  and  _516
REMARK  209  A    between atoms: _516  and  _517
REMARK  210  A    between atoms: _520  and  _522
REMARK  211  A    between atoms: _522  and  _523
REMARK  212  A    between atoms: _522  and  _525
REMARK  213  A    between atoms: _525  and  _526
REMARK  214  A    between atoms: _526  and  _527
REMARK  215  A    between atoms: _527  and  _528
REMARK  216  A    between atoms: _537  and  _539
REMARK  217  A    between atoms: _539  and  _540
REMARK  218  A    between atoms: _539  and  _542
REMARK  219  A    between atoms: _542  and  _543
REMARK  220  A    between atoms: _546  and  _548
REMARK  221  A    between atoms: _548  and  _549
REMARK  222  A    between atoms: _551  and  _553
REMARK  223  A    between atoms: _553  and  _554
REMARK  224  A    between atoms: _553  and  _556
REMARK  225  A    between atoms: _556  and  _557
REMARK  226  A    between atoms: _557  and  _558
REMARK  227  A    between atoms: _561  and  _563
REMARK  228  A    between atoms: _563  and  _564
REMARK  229  A    between atoms: _563  and  _566
REMARK  230  A    between atoms: _566  and  _567
REMARK  231  A    between atoms: _567  and  _568
REMARK  232  A    between atoms: _568  and  _569
REMARK  233  A    between atoms: _578  and  _580
REMARK  234  A    between atoms: _580  and  _581
REMARK  235  A    between atoms: _580  and  _583
REMARK  236  A    between atoms: _583  and  _584
REMARK  237  A    between atoms: _584  and  _585
REMARK  238  A    between atoms: _585  and  _586
REMARK  239  A    between atoms: _586  and  _587
REMARK  240  A    between atoms: _591  and  _593
REMARK  241  A    between atoms: _593  and  _594
REMARK  242  A    between atoms: _593  and  _596
REMARK  243  A    between atoms: _596  and  _597
REMARK  244  A    between atoms: _603  and  _605
REMARK  245  A    between atoms: _605  and  _606
REMARK  246  A    between atoms: _609  and  _611
REMARK  247  A    between atoms: _611  and  _612
REMARK  248  A    between atoms: _611  and  _614
REMARK  249  A    between atoms: _614  and  _615
REMARK  250  A    between atoms: _618  and  _620
REMARK  251  A    between atoms: _620  and  _621
REMARK  252  A    between atoms: _620  and  _623
REMARK  253  A    between atoms: _623  and  _624
REMARK  254  A    between atoms: _626  and  _628
REMARK  255  A    between atoms: _628  and  _629
REMARK  256  A    between atoms: _628  and  _631
REMARK  257  A    between atoms: _631  and  _632
REMARK  258  A    between atoms: _632  and  _633
REMARK  259  A    between atoms: _638  and  _640
REMARK  260  A    between atoms: _640  and  _641
REMARK  261  A    between atoms: _640  and  _643
REMARK  262  A    between atoms: _643  and  _644
REMARK  263  A    between atoms: _646  and  _648
REMARK  264  A    between atoms: _648  and  _649
REMARK  265  A    between atoms: _648  and  _651
REMARK  266  A    between atoms: _651  and  _652
REMARK  267  A    between atoms: _654  and  _656
REMARK  268  A    between atoms: _656  and  _657
REMARK  269  A    between atoms: _656  and  _659
REMARK  270  A    between atoms: _659  and  _660
REMARK  271  A    between atoms: _663  and  _665
REMARK  272  A    between atoms: _665  and  _666
REMARK  273  A    between atoms: _668  and  _670
REMARK  274  A    between atoms: _670  and  _671
REMARK  275  A    between atoms: _670  and  _673
REMARK  276  A    between atoms: _673  and  _674
REMARK  277  A    between atoms: _677  and  _679
REMARK  278  A    between atoms: _679  and  _680
REMARK  279  A    between atoms: _679  and  _682
REMARK  280  A    between atoms: _685  and  _687
REMARK  281  A    between atoms: _687  and  _688
REMARK  282  A    between atoms: _690  and  _692
REMARK  283  A    between atoms: _692  and  _693
REMARK  284  A    between atoms: _696  and  _698
REMARK  285  A    between atoms: _698  and  _699
REMARK  286  A    between atoms: _698  and  _701
REMARK                            x       y       z     vdW  Elec       q    Type
REMARK                         _______ _______ _______ _____ _____    ______ ____
ROOT
ATOM      1  O   HOH     1       7.293  -4.864   5.084  0.00  0.00    +0.000 OA
ENDROOT
TORSDOF 0
REMARK  Name = ../refined-set-2016/1fkn/1fkn_pocket.pdb
REMARK  286 active torsions:
REMARK  status: ('A' for Active; 'I' for Inactive)
REMARK    1  A    between atoms: _1  and  _3
REMARK    2  A    between atoms: _3  and  _4
REMARK    3  A    between atoms: _3  and  _6
REMARK    4  A    between atoms: _6  and  _7
REMARK    5  A    between atoms: _7  and  _8
REMARK    6  A    between atoms: _8  and  _9
REMARK    7  A    between atoms: _9  and  _10
REMARK    8  A    between atoms: _14  and  _16
REMARK    9  A    between atoms: _16  and  _17
REMARK   10  A    between atoms: _16  and  _19
REMARK   11  A    between atoms: _19  and  _20
REMARK   12  A    between atoms: _22  and  _24
REMARK   13  A    between atoms: _24  and  _25
REMARK   14  A    between atoms: _27  and  _29
REMARK   15  A    between atoms: _29  and  _30
REMARK   16  A    between atoms: _29  and  _32
REMARK   17  A    between atoms: _32  and  _33
REMARK   18  A    between atoms: _33  and  _34
REMARK   19  A    between atoms: _39  and  _41
REMARK   20  A    between atoms: _41  and  _42
REMARK   21  A    between atoms: _44  and  _46
REMARK   22  A    between atoms: _46  and  _47
REMARK   23  A    between atoms: _46  and  _49
REMARK   24  A    between atoms: _49  and  _50
REMARK   25  A    between atoms: _55  and  _56
REMARK   26  A    between atoms: _58  and  _60
REMARK   27  A    between atoms: _60  and  _61
REMARK   28  A    between atoms: _60  and  _63
REMARK   29  A    between atoms: _63  and  _64
REMARK   30  A    between atoms: _67  and  _69
REMARK   31  A    between atoms: _69  and  _70
REMARK   32  A    between atoms: _69  and  _72
REMARK   33  A    between atoms: _75  and  _77
REMARK   34  A    between atoms: _77  and  _78
REMARK   35  A    between atoms: _77  and  _80
REMARK   36  A    between atoms: _80  and  _81
REMARK   37  A    between atoms: _84  and  _86
REMARK   38  A    between atoms: _86  and  _87
REMARK   39  A    between atoms: _86  and  _89
REMARK   40  A    between atoms: _89  and  _90
REMARK   41  A    between atoms: _93  and  _95
REMARK   42  A    between atoms: _95  and  _96
REMARK   43  A    between atoms: _98  and  _100
REMARK   44  A    between atoms: _100  and  _101
REMARK   45  A    between atoms: _100  and  _103
REMARK   46  A    between atoms: _103  and  _104
REMARK   47  A    between atoms: _106  and  _108
REMARK   48  A    between atoms: _108  and  _109
REMARK   49  A    between atoms: _108  and  _111
REMARK   50  A    between atoms: _111  and  _112
REMARK   51  A    between atoms: _114  and  _116
REMARK   52  A    between atoms: _116  and  _117
REMARK   53  A    between atoms: _116  and  _119
REMARK   54  A    between atoms: _119  and  _120
REMARK   55  A    between atoms: _125  and  _127
REMARK   56  A    between atoms: _127  and  _128
REMARK   57  A    between atoms: _127  and  _130
REMARK   58  A    between atoms: _130  and  _131
REMARK   59  A    between atoms: _136  and  _137
REMARK   60  A    between atoms: _139  and  _141
REMARK   61  A    between atoms: _141  and  _142
REMARK   62  A    between atoms: _141  and  _144
REMARK   63  A    between atoms: _148  and  _149
REMARK   64  A    between atoms: _154  and  _156
REMARK   65  A    between atoms: _156  and  _157
REMARK   66  A    between atoms: _156  and  _159
REMARK   67  A    between atoms: _159  and  _160
REMARK   68  A    between atoms: _165  and  _166
REMARK   69  A    between atoms: _168  and  _170
REMARK   70  A    between atoms: _170  and  _171
REMARK   71  A    between atoms: _170  and  _173
REMARK   72  A    between atoms: _173  and  _174
REMARK   73  A    between atoms: _177  and  _179
REMARK   74  A    between atoms: _179  and  _180
REMARK   75  A    between atoms: _179  and  _182
REMARK   76  A    between atoms: _182  and  _183
REMARK   77  A    between atoms: _183  and  _184
REMARK   78  A    between atoms: _189  and  _191
REMARK   79  A    between atoms: _191  and  _192
REMARK   80  A    between atoms: _194  and  _196
REMARK   81  A    between atoms: _196  and  _197
REMARK   82  A    between atoms: _196  and  _199
REMARK   83  A    between atoms: _199  and  _200
REMARK   84  A    between atoms: _200  and  _201
REMARK   85  A    between atoms: _201  and  _202
REMARK   86  A    between atoms: _202  and  _203
REMARK   87  A    between atoms: _207  and  _209
REMARK   88  A    between atoms: _209  and  _210
REMARK   89  A    between atoms: _209  and  _212
REMARK   90  A    between atoms: _212  and  _213
REMARK   91  A    between atoms: _223  and  _225
REMARK   92  A    between atoms: _225  and  _226
REMARK   93  A    between atoms: _225  and  _228
REMARK   94  A    between atoms: _228  and  _229
REMARK   95  A    between atoms: _232  and  _234
REMARK   96  A    between atoms: _234  and  _235
REMARK   97  A    between atoms: _234  and  _237
REMARK   98  A    between atoms: _237  and  _238
REMARK   99  A    between atoms: _238  and  _239
REMARK  100  A    between atoms: _239  and  _240
REMARK  101  A    between atoms: _240  and  _241
REMARK  102  A    between atoms: _245  and  _247
REMARK  103  A    between atoms: _247  and  _248
REMARK  104  A    between atoms: _247  and  _250
REMARK  105  A    between atoms: _250  and  _251
REMARK  106  A    between atoms: _257  and  _259
REMARK  107  A    between atoms: _259  and  _260
REMARK  108  A    between atoms: _259  and  _262
REMARK  109  A    between atoms: _262  and  _263
REMARK  110  A    between atoms: _269  and  _271
REMARK  111  A    between atoms: _271  and  _272
REMARK  112  A    between atoms: _271  and  _274
REMARK  113  A    between atoms: _274  and  _275
REMARK  114  A    between atoms: _278  and  _280
REMARK  115  A    between atoms: _280  and  _281
REMARK  116  A    between atoms: _280  and  _283
REMARK  117  A    between atoms: _283  and  _284
REMARK  118  A    between atoms: _286  and  _288
REMARK  119  A    between atoms: _288  and  _289
REMARK  120  A    between atoms: _288  and  _291
REMARK  121  A    between atoms: _291  and  _292
REMARK  122  A    between atoms: _302  and  _304
REMARK  123  A    between atoms: _304  and  _305
REMARK  124  A    between atoms: _307  and  _309
REMARK  125  A    between atoms: _309  and  _310
REMARK  126  A    between atoms: _309  and  _312
REMARK  127  A    between atoms: _312  and  _313
REMARK  128  A    between atoms: _316  and  _318
REMARK  129  A    between atoms: _318  and  _319
REMARK  130  A    between atoms: _318  and  _321
REMARK  131  A    between atoms: _321  and  _322
REMARK  132  A    between atoms: _325  and  _327
REMARK  133  A    between atoms: _327  and  _328
REMARK  134  A    between atoms: _330  and  _332
REMARK  135  A    between atoms: _332  and  _333
REMARK  136  A    between atoms: _332  and  _335
REMARK  137  A    between atoms: _335  and  _336
REMARK  138  A    between atoms: _339  and  _341
REMARK  139  A    between atoms: _341  and  _342
REMARK  140  A    between atoms: _345  and  _347
REMARK  141  A    between atoms: _347  and  _348
REMARK  142  A    between atoms: _347  and  _350
REMARK  143  A    between atoms: _350  and  _351
REMARK  144  A    between atoms: _356  and  _357
REMARK  145  A    between atoms: _359  and  _361
REMARK  146  A    between atoms: _361  and  _362
REMARK  147  A    between atoms: _361  and  _364
REMARK  148  A    between atoms: _364  and  _365
REMARK  149  A    between atoms: _368  and  _370
REMARK  150  A    between atoms: _370  and  _371
REMARK  151  A    between atoms: _374  and  _376
REMARK  152  A    between atoms: _376  and  _377
REMARK  153  A    between atoms: _376  and  _379
REMARK  154  A    between atoms: _379  and  _380
REMARK  155  A    between atoms: _380  and  _381
REMARK  156  A    between atoms: _381  and  _382
REMARK  157  A    between atoms: _391  and  _393
REMARK  158  A    between atoms: _393  and  _394
REMARK  159  A    between atoms: _393  and  _396
REMARK  160  A    between atoms: _396  and  _397
REMARK  161  A    between atoms: _407  and  _409
REMARK  162  A    between atoms: _409  and  _410
REMARK  163  A    between atoms: _409  and  _412
REMARK  164  A    between atoms: _412  and  _413
REMARK  165  A    between atoms: _418  and  _419
REMARK  166  A    between atoms: _421  and  _423
REMARK  167  A    between atoms: _423  and  _424
REMARK  168  A    between atoms: _423  and  _426
REMARK  169  A    between atoms: _426  and  _427
REMARK  170  A    between atoms: _430  and  _432
REMARK  171  A    between atoms: _432  and  _433
REMARK  172  A    between atoms: _432  and  _435
REMARK  173  A    between atoms: _435  and  _436
REMARK  174  A    between atoms: _436  and  _437
REMARK  175  A    between atoms: _437  and  _438
REMARK  176  A    between atoms: _438  and  _439
REMARK  177  A    between atoms: _443  and  _445
REMARK  178  A    between atoms: _445  and  _446
REMARK  179  A    between atoms: _445  and  _448
REMARK  180  A    between atoms: _448  and  _449
REMARK  181  A    between atoms: _452  and  _454
REMARK  182  A    between atoms: _454  and  _455
REMARK  183  A    between atoms: _454  and  _457
REMARK  184  A    between atoms: _460  and  _462
REMARK  185  A    between atoms: _462  and  _463
REMARK  186  A    between atoms: _462  and  _465
REMARK  187  A    between atoms: _465  and  _466
REMARK  188  A    between atoms: _469  and  _471
REMARK  189  A    between atoms: _471  and  _472
REMARK  190  A    between atoms: _471  and  _474
REMARK  191  A    between atoms: _474  and  _475
REMARK  192  A    between atoms: _477  and  _479
REMARK  193  A    between atoms: _479  and  _480
REMARK  194  A    between atoms: _482  and  _484
REMARK  195  A    between atoms: _484  and  _485
REMARK  196  A    between atoms: _484  and  _487
REMARK  197  A    between atoms: _487  and  _488
REMARK  198  A    between atoms: _491  and  _493
REMARK  199  A    between atoms: _493  and  _494
REMARK  200  A    between atoms: _493  and  _496
REMARK  201  A    between atoms: _496  and  _497
REMARK  202  A    between atoms: _500  and  _502
REMARK  203  A    between atoms: _502  and  _503
REMARK  204  A    between atoms: _502  and  _505
REMARK  205  A    between atoms: _505  and  _506
REMARK  206  A    between atoms: _511  and  _513
REMARK  207  A    between atoms: _513  and  _514
REMARK  208  A    between atoms: _513  and  _516
REMARK  209  A    between atoms: _516  and  _517
REMARK  210  A    between atoms: _520  and  _522
REMARK  211  A    between atoms: _522  and  _523
REMARK  212  A    between atoms: _522  and  _525
REMARK  213  A    between atoms: _525  and  _526
REMARK  214  A    between atoms: _526  and  _527
REMARK  215  A    between atoms: _527  and  _528
REMARK  216  A    between atoms: _537  and  _539
REMARK  217  A    between atoms: _539  and  _540
REMARK  218  A    between atoms: _539  and  _542
REMARK  219  A    between atoms: _542  and  _543
REMARK  220  A    between atoms: _546  and  _548
REMARK  221  A    between atoms: _548  and  _549
REMARK  222  A    between atoms: _551  and  _553
REMARK  223  A    between atoms: _553  and  _554
REMARK  224  A    between atoms: _553  and  _556
REMARK  225  A    between atoms: _556  and  _557
REMARK  226  A    between atoms: _557  and  _558
REMARK  227  A    between atoms: _561  and  _563
REMARK  228  A    between atoms: _563  and  _564
REMARK  229  A    between atoms: _563  and  _566
REMARK  230  A    between atoms: _566  and  _567
REMARK  231  A    between atoms: _567  and  _568
REMARK  232  A    between atoms: _568  and  _569
REMARK  233  A    between atoms: _578  and  _580
REMARK  234  A    between atoms: _580  and  _581
REMARK  235  A    between atoms: _580  and  _583
REMARK  236  A    between atoms: _583  and  _584
REMARK  237  A    between atoms: _584  and  _585
REMARK  238  A    between atoms: _585  and  _586
REMARK  239  A    between atoms: _586  and  _587
REMARK  240  A    between atoms: _591  and  _593
REMARK  241  A    between atoms: _593  and  _594
REMARK  242  A    between atoms: _593  and  _596
REMARK  243  A    between atoms: _596  and  _597
REMARK  244  A    between atoms: _603  and  _605
REMARK  245  A    between atoms: _605  and  _606
REMARK  246  A    between atoms: _609  and  _611
REMARK  247  A    between atoms: _611  and  _612
REMARK  248  A    between atoms: _611  and  _614
REMARK  249  A    between atoms: _614  and  _615
REMARK  250  A    between atoms: _618  and  _620
REMARK  251  A    between atoms: _620  and  _621
REMARK  252  A    between atoms: _620  and  _623
REMARK  253  A    between atoms: _623  and  _624
REMARK  254  A    between atoms: _626  and  _628
REMARK  255  A    between atoms: _628  and  _629
REMARK  256  A    between atoms: _628  and  _631
REMARK  257  A    between atoms: _631  and  _632
REMARK  258  A    between atoms: _632  and  _633
REMARK  259  A    between atoms: _638  and  _640
REMARK  260  A    between atoms: _640  and  _641
REMARK  261  A    between atoms: _640  and  _643
REMARK  262  A    between atoms: _643  and  _644
REMARK  263  A    between atoms: _646  and  _648
REMARK  264  A    between atoms: _648  and  _649
REMARK  265  A    between atoms: _648  and  _651
REMARK  266  A    between atoms: _651  and  _652
REMARK  267  A    between atoms: _654  and  _656
REMARK  268  A    between atoms: _656  and  _657
REMARK  269  A    between atoms: _656  and  _659
REMARK  270  A    between atoms: _659  and  _660
REMARK  271  A    between atoms: _663  and  _665
REMARK  272  A    between atoms: _665  and  _666
REMARK  273  A    between atoms: _668  and  _670
REMARK  274  A    between atoms: _670  and  _671
REMARK  275  A    between atoms: _670  and  _673
REMARK  276  A    between atoms: _673  and  _674
REMARK  277  A    between atoms: _677  and  _679
REMARK  278  A    between atoms: _679  and  _680
REMARK  279  A    between atoms: _679  and  _682
REMARK  280  A    between atoms: _685  and  _687
REMARK  281  A    between atoms: _687  and  _688
REMARK  282  A    between atoms: _690  and  _692
REMARK  283  A    between atoms: _692  and  _693
REMARK  284  A    between atoms: _696  and  _698
REMARK  285  A    between atoms: _698  and  _699
REMARK  286  A    between atoms: _698  and  _701
REMARK                            x       y       z     vdW  Elec       q    Type
REMARK                         _______ _______ _______ _____ _____    ______ ____
ROOT
ATOM      1  O   HOH     1      15.795   5.879   2.646  0.00  0.00    +0.000 OA
ENDROOT
TORSDOF 0
REMARK  Name = ../refined-set-2016/1fkn/1fkn_pocket.pdb
REMARK  286 active torsions:
REMARK  status: ('A' for Active; 'I' for Inactive)
REMARK    1  A    between atoms: _1  and  _3
REMARK    2  A    between atoms: _3  and  _4
REMARK    3  A    between atoms: _3  and  _6
REMARK    4  A    between atoms: _6  and  _7
REMARK    5  A    between atoms: _7  and  _8
REMARK    6  A    between atoms: _8  and  _9
REMARK    7  A    between atoms: _9  and  _10
REMARK    8  A    between atoms: _14  and  _16
REMARK    9  A    between atoms: _16  and  _17
REMARK   10  A    between atoms: _16  and  _19
REMARK   11  A    between atoms: _19  and  _20
REMARK   12  A    between atoms: _22  and  _24
REMARK   13  A    between atoms: _24  and  _25
REMARK   14  A    between atoms: _27  and  _29
REMARK   15  A    between atoms: _29  and  _30
REMARK   16  A    between atoms: _29  and  _32
REMARK   17  A    between atoms: _32  and  _33
REMARK   18  A    between atoms: _33  and  _34
REMARK   19  A    between atoms: _39  and  _41
REMARK   20  A    between atoms: _41  and  _42
REMARK   21  A    between atoms: _44  and  _46
REMARK   22  A    between atoms: _46  and  _47
REMARK   23  A    between atoms: _46  and  _49
REMARK   24  A    between atoms: _49  and  _50
REMARK   25  A    between atoms: _55  and  _56
REMARK   26  A    between atoms: _58  and  _60
REMARK   27  A    between atoms: _60  and  _61
REMARK   28  A    between atoms: _60  and  _63
REMARK   29  A    between atoms: _63  and  _64
REMARK   30  A    between atoms: _67  and  _69
REMARK   31  A    between atoms: _69  and  _70
REMARK   32  A    between atoms: _69  and  _72
REMARK   33  A    between atoms: _75  and  _77
REMARK   34  A    between atoms: _77  and  _78
REMARK   35  A    between atoms: _77  and  _80
REMARK   36  A    between atoms: _80  and  _81
REMARK   37  A    between atoms: _84  and  _86
REMARK   38  A    between atoms: _86  and  _87
REMARK   39  A    between atoms: _86  and  _89
REMARK   40  A    between atoms: _89  and  _90
REMARK   41  A    between atoms: _93  and  _95
REMARK   42  A    between atoms: _95  and  _96
REMARK   43  A    between atoms: _98  and  _100
REMARK   44  A    between atoms: _100  and  _101
REMARK   45  A    between atoms: _100  and  _103
REMARK   46  A    between atoms: _103  and  _104
REMARK   47  A    between atoms: _106  and  _108
REMARK   48  A    between atoms: _108  and  _109
REMARK   49  A    between atoms: _108  and  _111
REMARK   50  A    between atoms: _111  and  _112
REMARK   51  A    between atoms: _114  and  _116
REMARK   52  A    between atoms: _116  and  _117
REMARK   53  A    between atoms: _116  and  _119
REMARK   54  A    between atoms: _119  and  _120
REMARK   55  A    between atoms: _125  and  _127
REMARK   56  A    between atoms: _127  and  _128
REMARK   57  A    between atoms: _127  and  _130
REMARK   58  A    between atoms: _130  and  _131
REMARK   59  A    between atoms: _136  and  _137
REMARK   60  A    between atoms: _139  and  _141
REMARK   61  A    between atoms: _141  and  _142
REMARK   62  A    between atoms: _141  and  _144
REMARK   63  A    between atoms: _148  and  _149
REMARK   64  A    between atoms: _154  and  _156
REMARK   65  A    between atoms: _156  and  _157
REMARK   66  A    between atoms: _156  and  _159
REMARK   67  A    between atoms: _159  and  _160
REMARK   68  A    between atoms: _165  and  _166
REMARK   69  A    between atoms: _168  and  _170
REMARK   70  A    between atoms: _170  and  _171
REMARK   71  A    between atoms: _170  and  _173
REMARK   72  A    between atoms: _173  and  _174
REMARK   73  A    between atoms: _177  and  _179
REMARK   74  A    between atoms: _179  and  _180
REMARK   75  A    between atoms: _179  and  _182
REMARK   76  A    between atoms: _182  and  _183
REMARK   77  A    between atoms: _183  and  _184
REMARK   78  A    between atoms: _189  and  _191
REMARK   79  A    between atoms: _191  and  _192
REMARK   80  A    between atoms: _194  and  _196
REMARK   81  A    between atoms: _196  and  _197
REMARK   82  A    between atoms: _196  and  _199
REMARK   83  A    between atoms: _199  and  _200
REMARK   84  A    between atoms: _200  and  _201
REMARK   85  A    between atoms: _201  and  _202
REMARK   86  A    between atoms: _202  and  _203
REMARK   87  A    between atoms: _207  and  _209
REMARK   88  A    between atoms: _209  and  _210
REMARK   89  A    between atoms: _209  and  _212
REMARK   90  A    between atoms: _212  and  _213
REMARK   91  A    between atoms: _223  and  _225
REMARK   92  A    between atoms: _225  and  _226
REMARK   93  A    between atoms: _225  and  _228
REMARK   94  A    between atoms: _228  and  _229
REMARK   95  A    between atoms: _232  and  _234
REMARK   96  A    between atoms: _234  and  _235
REMARK   97  A    between atoms: _234  and  _237
REMARK   98  A    between atoms: _237  and  _238
REMARK   99  A    between atoms: _238  and  _239
REMARK  100  A    between atoms: _239  and  _240
REMARK  101  A    between atoms: _240  and  _241
REMARK  102  A    between atoms: _245  and  _247
REMARK  103  A    between atoms: _247  and  _248
REMARK  104  A    between atoms: _247  and  _250
REMARK  105  A    between atoms: _250  and  _251
REMARK  106  A    between atoms: _257  and  _259
REMARK  107  A    between atoms: _259  and  _260
REMARK  108  A    between atoms: _259  and  _262
REMARK  109  A    between atoms: _262  and  _263
REMARK  110  A    between atoms: _269  and  _271
REMARK  111  A    between atoms: _271  and  _272
REMARK  112  A    between atoms: _271  and  _274
REMARK  113  A    between atoms: _274  and  _275
REMARK  114  A    between atoms: _278  and  _280
REMARK  115  A    between atoms: _280  and  _281
REMARK  116  A    between atoms: _280  and  _283
REMARK  117  A    between atoms: _283  and  _284
REMARK  118  A    between atoms: _286  and  _288
REMARK  119  A    between atoms: _288  and  _289
REMARK  120  A    between atoms: _288  and  _291
REMARK  121  A    between atoms: _291  and  _292
REMARK  122  A    between atoms: _302  and  _304
REMARK  123  A    between atoms: _304  and  _305
REMARK  124  A    between atoms: _307  and  _309
REMARK  125  A    between atoms: _309  and  _310
REMARK  126  A    between atoms: _309  and  _312
REMARK  127  A    between atoms: _312  and  _313
REMARK  128  A    between atoms: _316  and  _318
REMARK  129  A    between atoms: _318  and  _319
REMARK  130  A    between atoms: _318  and  _321
REMARK  131  A    between atoms: _321  and  _322
REMARK  132  A    between atoms: _325  and  _327
REMARK  133  A    between atoms: _327  and  _328
REMARK  134  A    between atoms: _330  and  _332
REMARK  135  A    between atoms: _332  and  _333
REMARK  136  A    between atoms: _332  and  _335
REMARK  137  A    between atoms: _335  and  _336
REMARK  138  A    between atoms: _339  and  _341
REMARK  139  A    between atoms: _341  and  _342
REMARK  140  A    between atoms: _345  and  _347
REMARK  141  A    between atoms: _347  and  _348
REMARK  142  A    between atoms: _347  and  _350
REMARK  143  A    between atoms: _350  and  _351
REMARK  144  A    between atoms: _356  and  _357
REMARK  145  A    between atoms: _359  and  _361
REMARK  146  A    between atoms: _361  and  _362
REMARK  147  A    between atoms: _361  and  _364
REMARK  148  A    between atoms: _364  and  _365
REMARK  149  A    between atoms: _368  and  _370
REMARK  150  A    between atoms: _370  and  _371
REMARK  151  A    between atoms: _374  and  _376
REMARK  152  A    between atoms: _376  and  _377
REMARK  153  A    between atoms: _376  and  _379
REMARK  154  A    between atoms: _379  and  _380
REMARK  155  A    between atoms: _380  and  _381
REMARK  156  A    between atoms: _381  and  _382
REMARK  157  A    between atoms: _391  and  _393
REMARK  158  A    between atoms: _393  and  _394
REMARK  159  A    between atoms: _393  and  _396
REMARK  160  A    between atoms: _396  and  _397
REMARK  161  A    between atoms: _407  and  _409
REMARK  162  A    between atoms: _409  and  _410
REMARK  163  A    between atoms: _409  and  _412
REMARK  164  A    between atoms: _412  and  _413
REMARK  165  A    between atoms: _418  and  _419
REMARK  166  A    between atoms: _421  and  _423
REMARK  167  A    between atoms: _423  and  _424
REMARK  168  A    between atoms: _423  and  _426
REMARK  169  A    between atoms: _426  and  _427
REMARK  170  A    between atoms: _430  and  _432
REMARK  171  A    between atoms: _432  and  _433
REMARK  172  A    between atoms: _432  and  _435
REMARK  173  A    between atoms: _435  and  _436
REMARK  174  A    between atoms: _436  and  _437
REMARK  175  A    between atoms: _437  and  _438
REMARK  176  A    between atoms: _438  and  _439
REMARK  177  A    between atoms: _443  and  _445
REMARK  178  A    between atoms: _445  and  _446
REMARK  179  A    between atoms: _445  and  _448
REMARK  180  A    between atoms: _448  and  _449
REMARK  181  A    between atoms: _452  and  _454
REMARK  182  A    between atoms: _454  and  _455
REMARK  183  A    between atoms: _454  and  _457
REMARK  184  A    between atoms: _460  and  _462
REMARK  185  A    between atoms: _462  and  _463
REMARK  186  A    between atoms: _462  and  _465
REMARK  187  A    between atoms: _465  and  _466
REMARK  188  A    between atoms: _469  and  _471
REMARK  189  A    between atoms: _471  and  _472
REMARK  190  A    between atoms: _471  and  _474
REMARK  191  A    between atoms: _474  and  _475
REMARK  192  A    between atoms: _477  and  _479
REMARK  193  A    between atoms: _479  and  _480
REMARK  194  A    between atoms: _482  and  _484
REMARK  195  A    between atoms: _484  and  _485
REMARK  196  A    between atoms: _484  and  _487
REMARK  197  A    between atoms: _487  and  _488
REMARK  198  A    between atoms: _491  and  _493
REMARK  199  A    between atoms: _493  and  _494
REMARK  200  A    between atoms: _493  and  _496
REMARK  201  A    between atoms: _496  and  _497
REMARK  202  A    between atoms: _500  and  _502
REMARK  203  A    between atoms: _502  and  _503
REMARK  204  A    between atoms: _502  and  _505
REMARK  205  A    between atoms: _505  and  _506
REMARK  206  A    between atoms: _511  and  _513
REMARK  207  A    between atoms: _513  and  _514
REMARK  208  A    between atoms: _513  and  _516
REMARK  209  A    between atoms: _516  and  _517
REMARK  210  A    between atoms: _520  and  _522
REMARK  211  A    between atoms: _522  and  _523
REMARK  212  A    between atoms: _522  and  _525
REMARK  213  A    between atoms: _525  and  _526
REMARK  214  A    between atoms: _526  and  _527
REMARK  215  A    between atoms: _527  and  _528
REMARK  216  A    between atoms: _537  and  _539
REMARK  217  A    between atoms: _539  and  _540
REMARK  218  A    between atoms: _539  and  _542
REMARK  219  A    between atoms: _542  and  _543
REMARK  220  A    between atoms: _546  and  _548
REMARK  221  A    between atoms: _548  and  _549
REMARK  222  A    between atoms: _551  and  _553
REMARK  223  A    between atoms: _553  and  _554
REMARK  224  A    between atoms: _553  and  _556
REMARK  225  A    between atoms: _556  and  _557
REMARK  226  A    between atoms: _557  and  _558
REMARK  227  A    between atoms: _561  and  _563
REMARK  228  A    between atoms: _563  and  _564
REMARK  229  A    between atoms: _563  and  _566
REMARK  230  A    between atoms: _566  and  _567
REMARK  231  A    between atoms: _567  and  _568
REMARK  232  A    between atoms: _568  and  _569
REMARK  233  A    between atoms: _578  and  _580
REMARK  234  A    between atoms: _580  and  _581
REMARK  235  A    between atoms: _580  and  _583
REMARK  236  A    between atoms: _583  and  _584
REMARK  237  A    between atoms: _584  and  _585
REMARK  238  A    between atoms: _585  and  _586
REMARK  239  A    between atoms: _586  and  _587
REMARK  240  A    between atoms: _591  and  _593
REMARK  241  A    between atoms: _593  and  _594
REMARK  242  A    between atoms: _593  and  _596
REMARK  243  A    between atoms: _596  and  _597
REMARK  244  A    between atoms: _603  and  _605
REMARK  245  A    between atoms: _605  and  _606
REMARK  246  A    between atoms: _609  and  _611
REMARK  247  A    between atoms: _611  and  _612
REMARK  248  A    between atoms: _611  and  _614
REMARK  249  A    between atoms: _614  and  _615
REMARK  250  A    between atoms: _618  and  _620
REMARK  251  A    between atoms: _620  and  _621
REMARK  252  A    between atoms: _620  and  _623
REMARK  253  A    between atoms: _623  and  _624
REMARK  254  A    between atoms: _626  and  _628
REMARK  255  A    between atoms: _628  and  _629
REMARK  256  A    between atoms: _628  and  _631
REMARK  257  A    between atoms: _631  and  _632
REMARK  258  A    between atoms: _632  and  _633
REMARK  259  A    between atoms: _638  and  _640
REMARK  260  A    between atoms: _640  and  _641
REMARK  261  A    between atoms: _640  and  _643
REMARK  262  A    between atoms: _643  and  _644
REMARK  263  A    between atoms: _646  and  _648
REMARK  264  A    between atoms: _648  and  _649
REMARK  265  A    between atoms: _648  and  _651
REMARK  266  A    between atoms: _651  and  _652
REMARK  267  A    between atoms: _654  and  _656
REMARK  268  A    between atoms: _656  and  _657
REMARK  269  A    between atoms: _656  and  _659
REMARK  270  A    between atoms: _659  and  _660
REMARK  271  A    between atoms: _663  and  _665
REMARK  272  A    between atoms: _665  and  _666
REMARK  273  A    between atoms: _668  and  _670
REMARK  274  A    between atoms: _670  and  _671
REMARK  275  A    between atoms: _670  and  _673
REMARK  276  A    between atoms: _673  and  _674
REMARK  277  A    between atoms: _677  and  _679
REMARK  278  A    between atoms: _679  and  _680
REMARK  279  A    between atoms: _679  and  _682
REMARK  280  A    between atoms: _685  and  _687
REMARK  281  A    between atoms: _687  and  _688
REMARK  282  A    between atoms: _690  and  _692
REMARK  283  A    between atoms: _692  and  _693
REMARK  284  A    between atoms: _696  and  _698
REMARK  285  A    between atoms: _698  and  _699
REMARK  286  A    between atoms: _698  and  _701
REMARK                            x       y       z     vdW  Elec       q    Type
REMARK                         _______ _______ _______ _____ _____    ______ ____
ROOT
ATOM      1  O   HOH     1       2.202   5.948  -2.729  0.00  0.00    +0.000 OA
ENDROOT
TORSDOF 0
REMARK  Name = ../refined-set-2016/1fkn/1fkn_pocket.pdb
REMARK  286 active torsions:
REMARK  status: ('A' for Active; 'I' for Inactive)
REMARK    1  A    between atoms: _1  and  _3
REMARK    2  A    between atoms: _3  and  _4
REMARK    3  A    between atoms: _3  and  _6
REMARK    4  A    between atoms: _6  and  _7
REMARK    5  A    between atoms: _7  and  _8
REMARK    6  A    between atoms: _8  and  _9
REMARK    7  A    between atoms: _9  and  _10
REMARK    8  A    between atoms: _14  and  _16
REMARK    9  A    between atoms: _16  and  _17
REMARK   10  A    between atoms: _16  and  _19
REMARK   11  A    between atoms: _19  and  _20
REMARK   12  A    between atoms: _22  and  _24
REMARK   13  A    between atoms: _24  and  _25
REMARK   14  A    between atoms: _27  and  _29
REMARK   15  A    between atoms: _29  and  _30
REMARK   16  A    between atoms: _29  and  _32
REMARK   17  A    between atoms: _32  and  _33
REMARK   18  A    between atoms: _33  and  _34
REMARK   19  A    between atoms: _39  and  _41
REMARK   20  A    between atoms: _41  and  _42
REMARK   21  A    between atoms: _44  and  _46
REMARK   22  A    between atoms: _46  and  _47
REMARK   23  A    between atoms: _46  and  _49
REMARK   24  A    between atoms: _49  and  _50
REMARK   25  A    between atoms: _55  and  _56
REMARK   26  A    between atoms: _58  and  _60
REMARK   27  A    between atoms: _60  and  _61
REMARK   28  A    between atoms: _60  and  _63
REMARK   29  A    between atoms: _63  and  _64
REMARK   30  A    between atoms: _67  and  _69
REMARK   31  A    between atoms: _69  and  _70
REMARK   32  A    between atoms: _69  and  _72
REMARK   33  A    between atoms: _75  and  _77
REMARK   34  A    between atoms: _77  and  _78
REMARK   35  A    between atoms: _77  and  _80
REMARK   36  A    between atoms: _80  and  _81
REMARK   37  A    between atoms: _84  and  _86
REMARK   38  A    between atoms: _86  and  _87
REMARK   39  A    between atoms: _86  and  _89
REMARK   40  A    between atoms: _89  and  _90
REMARK   41  A    between atoms: _93  and  _95
REMARK   42  A    between atoms: _95  and  _96
REMARK   43  A    between atoms: _98  and  _100
REMARK   44  A    between atoms: _100  and  _101
REMARK   45  A    between atoms: _100  and  _103
REMARK   46  A    between atoms: _103  and  _104
REMARK   47  A    between atoms: _106  and  _108
REMARK   48  A    between atoms: _108  and  _109
REMARK   49  A    between atoms: _108  and  _111
REMARK   50  A    between atoms: _111  and  _112
REMARK   51  A    between atoms: _114  and  _116
REMARK   52  A    between atoms: _116  and  _117
REMARK   53  A    between atoms: _116  and  _119
REMARK   54  A    between atoms: _119  and  _120
REMARK   55  A    between atoms: _125  and  _127
REMARK   56  A    between atoms: _127  and  _128
REMARK   57  A    between atoms: _127  and  _130
REMARK   58  A    between atoms: _130  and  _131
REMARK   59  A    between atoms: _136  and  _137
REMARK   60  A    between atoms: _139  and  _141
REMARK   61  A    between atoms: _141  and  _142
REMARK   62  A    between atoms: _141  and  _144
REMARK   63  A    between atoms: _148  and  _149
REMARK   64  A    between atoms: _154  and  _156
REMARK   65  A    between atoms: _156  and  _157
REMARK   66  A    between atoms: _156  and  _159
REMARK   67  A    between atoms: _159  and  _160
REMARK   68  A    between atoms: _165  and  _166
REMARK   69  A    between atoms: _168  and  _170
REMARK   70  A    between atoms: _170  and  _171
REMARK   71  A    between atoms: _170  and  _173
REMARK   72  A    between atoms: _173  and  _174
REMARK   73  A    between atoms: _177  and  _179
REMARK   74  A    between atoms: _179  and  _180
REMARK   75  A    between atoms: _179  and  _182
REMARK   76  A    between atoms: _182  and  _183
REMARK   77  A    between atoms: _183  and  _184
REMARK   78  A    between atoms: _189  and  _191
REMARK   79  A    between atoms: _191  and  _192
REMARK   80  A    between atoms: _194  and  _196
REMARK   81  A    between atoms: _196  and  _197
REMARK   82  A    between atoms: _196  and  _199
REMARK   83  A    between atoms: _199  and  _200
REMARK   84  A    between atoms: _200  and  _201
REMARK   85  A    between atoms: _201  and  _202
REMARK   86  A    between atoms: _202  and  _203
REMARK   87  A    between atoms: _207  and  _209
REMARK   88  A    between atoms: _209  and  _210
REMARK   89  A    between atoms: _209  and  _212
REMARK   90  A    between atoms: _212  and  _213
REMARK   91  A    between atoms: _223  and  _225
REMARK   92  A    between atoms: _225  and  _226
REMARK   93  A    between atoms: _225  and  _228
REMARK   94  A    between atoms: _228  and  _229
REMARK   95  A    between atoms: _232  and  _234
REMARK   96  A    between atoms: _234  and  _235
REMARK   97  A    between atoms: _234  and  _237
REMARK   98  A    between atoms: _237  and  _238
REMARK   99  A    between atoms: _238  and  _239
REMARK  100  A    between atoms: _239  and  _240
REMARK  101  A    between atoms: _240  and  _241
REMARK  102  A    between atoms: _245  and  _247
REMARK  103  A    between atoms: _247  and  _248
REMARK  104  A    between atoms: _247  and  _250
REMARK  105  A    between atoms: _250  and  _251
REMARK  106  A    between atoms: _257  and  _259
REMARK  107  A    between atoms: _259  and  _260
REMARK  108  A    between atoms: _259  and  _262
REMARK  109  A    between atoms: _262  and  _263
REMARK  110  A    between atoms: _269  and  _271
REMARK  111  A    between atoms: _271  and  _272
REMARK  112  A    between atoms: _271  and  _274
REMARK  113  A    between atoms: _274  and  _275
REMARK  114  A    between atoms: _278  and  _280
REMARK  115  A    between atoms: _280  and  _281
REMARK  116  A    between atoms: _280  and  _283
REMARK  117  A    between atoms: _283  and  _284
REMARK  118  A    between atoms: _286  and  _288
REMARK  119  A    between atoms: _288  and  _289
REMARK  120  A    between atoms: _288  and  _291
REMARK  121  A    between atoms: _291  and  _292
REMARK  122  A    between atoms: _302  and  _304
REMARK  123  A    between atoms: _304  and  _305
REMARK  124  A    between atoms: _307  and  _309
REMARK  125  A    between atoms: _309  and  _310
REMARK  126  A    between atoms: _309  and  _312
REMARK  127  A    between atoms: _312  and  _313
REMARK  128  A    between atoms: _316  and  _318
REMARK  129  A    between atoms: _318  and  _319
REMARK  130  A    between atoms: _318  and  _321
REMARK  131  A    between atoms: _321  and  _322
REMARK  132  A    between atoms: _325  and  _327
REMARK  133  A    between atoms: _327  and  _328
REMARK  134  A    between atoms: _330  and  _332
REMARK  135  A    between atoms: _332  and  _333
REMARK  136  A    between atoms: _332  and  _335
REMARK  137  A    between atoms: _335  and  _336
REMARK  138  A    between atoms: _339  and  _341
REMARK  139  A    between atoms: _341  and  _342
REMARK  140  A    between atoms: _345  and  _347
REMARK  141  A    between atoms: _347  and  _348
REMARK  142  A    between atoms: _347  and  _350
REMARK  143  A    between atoms: _350  and  _351
REMARK  144  A    between atoms: _356  and  _357
REMARK  145  A    between atoms: _359  and  _361
REMARK  146  A    between atoms: _361  and  _362
REMARK  147  A    between atoms: _361  and  _364
REMARK  148  A    between atoms: _364  and  _365
REMARK  149  A    between atoms: _368  and  _370
REMARK  150  A    between atoms: _370  and  _371
REMARK  151  A    between atoms: _374  and  _376
REMARK  152  A    between atoms: _376  and  _377
REMARK  153  A    between atoms: _376  and  _379
REMARK  154  A    between atoms: _379  and  _380
REMARK  155  A    between atoms: _380  and  _381
REMARK  156  A    between atoms: _381  and  _382
REMARK  157  A    between atoms: _391  and  _393
REMARK  158  A    between atoms: _393  and  _394
REMARK  159  A    between atoms: _393  and  _396
REMARK  160  A    between atoms: _396  and  _397
REMARK  161  A    between atoms: _407  and  _409
REMARK  162  A    between atoms: _409  and  _410
REMARK  163  A    between atoms: _409  and  _412
REMARK  164  A    between atoms: _412  and  _413
REMARK  165  A    between atoms: _418  and  _419
REMARK  166  A    between atoms: _421  and  _423
REMARK  167  A    between atoms: _423  and  _424
REMARK  168  A    between atoms: _423  and  _426
REMARK  169  A    between atoms: _426  and  _427
REMARK  170  A    between atoms: _430  and  _432
REMARK  171  A    between atoms: _432  and  _433
REMARK  172  A    between atoms: _432  and  _435
REMARK  173  A    between atoms: _435  and  _436
REMARK  174  A    between atoms: _436  and  _437
REMARK  175  A    between atoms: _437  and  _438
REMARK  176  A    between atoms: _438  and  _439
REMARK  177  A    between atoms: _443  and  _445
REMARK  178  A    between atoms: _445  and  _446
REMARK  179  A    between atoms: _445  and  _448
REMARK  180  A    between atoms: _448  and  _449
REMARK  181  A    between atoms: _452  and  _454
REMARK  182  A    between atoms: _454  and  _455
REMARK  183  A    between atoms: _454  and  _457
REMARK  184  A    between atoms: _460  and  _462
REMARK  185  A    between atoms: _462  and  _463
REMARK  186  A    between atoms: _462  and  _465
REMARK  187  A    between atoms: _465  and  _466
REMARK  188  A    between atoms: _469  and  _471
REMARK  189  A    between atoms: _471  and  _472
REMARK  190  A    between atoms: _471  and  _474
REMARK  191  A    between atoms: _474  and  _475
REMARK  192  A    between atoms: _477  and  _479
REMARK  193  A    between atoms: _479  and  _480
REMARK  194  A    between atoms: _482  and  _484
REMARK  195  A    between atoms: _484  and  _485
REMARK  196  A    between atoms: _484  and  _487
REMARK  197  A    between atoms: _487  and  _488
REMARK  198  A    between atoms: _491  and  _493
REMARK  199  A    between atoms: _493  and  _494
REMARK  200  A    between atoms: _493  and  _496
REMARK  201  A    between atoms: _496  and  _497
REMARK  202  A    between atoms: _500  and  _502
REMARK  203  A    between atoms: _502  and  _503
REMARK  204  A    between atoms: _502  and  _505
REMARK  205  A    between atoms: _505  and  _506
REMARK  206  A    between atoms: _511  and  _513
REMARK  207  A    between atoms: _513  and  _514
REMARK  208  A    between atoms: _513  and  _516
REMARK  209  A    between atoms: _516  and  _517
REMARK  210  A    between atoms: _520  and  _522
REMARK  211  A    between atoms: _522  and  _523
REMARK  212  A    between atoms: _522  and  _525
REMARK  213  A    between atoms: _525  and  _526
REMARK  214  A    between atoms: _526  and  _527
REMARK  215  A    between atoms: _527  and  _528
REMARK  216  A    between atoms: _537  and  _539
REMARK  217  A    between atoms: _539  and  _540
REMARK  218  A    between atoms: _539  and  _542
REMARK  219  A    between atoms: _542  and  _543
REMARK  220  A    between atoms: _546  and  _548
REMARK  221  A    between atoms: _548  and  _549
REMARK  222  A    between atoms: _551  and  _553
REMARK  223  A    between atoms: _553  and  _554
REMARK  224  A    between atoms: _553  and  _556
REMARK  225  A    between atoms: _556  and  _557
REMARK  226  A    between atoms: _557  and  _558
REMARK  227  A    between atoms: _561  and  _563
REMARK  228  A    between atoms: _563  and  _564
REMARK  229  A    between atoms: _563  and  _566
REMARK  230  A    between atoms: _566  and  _567
REMARK  231  A    between atoms: _567  and  _568
REMARK  232  A    between atoms: _568  and  _569
REMARK  233  A    between atoms: _578  and  _580
REMARK  234  A    between atoms: _580  and  _581
REMARK  235  A    between atoms: _580  and  _583
REMARK  236  A    between atoms: _583  and  _584
REMARK  237  A    between atoms: _584  and  _585
REMARK  238  A    between atoms: _585  and  _586
REMARK  239  A    between atoms: _586  and  _587
REMARK  240  A    between atoms: _591  and  _593
REMARK  241  A    between atoms: _593  and  _594
REMARK  242  A    between atoms: _593  and  _596
REMARK  243  A    between atoms: _596  and  _597
REMARK  244  A    between atoms: _603  and  _605
REMARK  245  A    between atoms: _605  and  _606
REMARK  246  A    between atoms: _609  and  _611
REMARK  247  A    between atoms: _611  and  _612
REMARK  248  A    between atoms: _611  and  _614
REMARK  249  A    between atoms: _614  and  _615
REMARK  250  A    between atoms: _618  and  _620
REMARK  251  A    between atoms: _620  and  _621
REMARK  252  A    between atoms: _620  and  _623
REMARK  253  A    between atoms: _623  and  _624
REMARK  254  A    between atoms: _626  and  _628
REMARK  255  A    between atoms: _628  and  _629
REMARK  256  A    between atoms: _628  and  _631
REMARK  257  A    between atoms: _631  and  _632
REMARK  258  A    between atoms: _632  and  _633
REMARK  259  A    between atoms: _638  and  _640
REMARK  260  A    between atoms: _640  and  _641
REMARK  261  A    between atoms: _640  and  _643
REMARK  262  A    between atoms: _643  and  _644
REMARK  263  A    between atoms: _646  and  _648
REMARK  264  A    between atoms: _648  and  _649
REMARK  265  A    between atoms: _648  and  _651
REMARK  266  A    between atoms: _651  and  _652
REMARK  267  A    between atoms: _654  and  _656
REMARK  268  A    between atoms: _656  and  _657
REMARK  269  A    between atoms: _656  and  _659
REMARK  270  A    between atoms: _659  and  _660
REMARK  271  A    between atoms: _663  and  _665
REMARK  272  A    between atoms: _665  and  _666
REMARK  273  A    between atoms: _668  and  _670
REMARK  274  A    between atoms: _670  and  _671
REMARK  275  A    between atoms: _670  and  _673
REMARK  276  A    between atoms: _673  and  _674
REMARK  277  A    between atoms: _677  and  _679
REMARK  278  A    between atoms: _679  and  _680
REMARK  279  A    between atoms: _679  and  _682
REMARK  280  A    between atoms: _685  and  _687
REMARK  281  A    between atoms: _687  and  _688
REMARK  282  A    between atoms: _690  and  _692
REMARK  283  A    between atoms: _692  and  _693
REMARK  284  A    between atoms: _696  and  _698
REMARK  285  A    between atoms: _698  and  _699
REMARK  286  A    between atoms: _698  and  _701
REMARK                            x       y       z     vdW  Elec       q    Type
REMARK                         _______ _______ _______ _____ _____    ______ ____
ROOT
ATOM      1  O   HOH     1      13.430  12.174  -4.102  0.00  0.00    +0.000 OA
ENDROOT
TORSDOF 0
REMARK  Name = ../refined-set-2016/1fkn/1fkn_pocket.pdb
REMARK  286 active torsions:
REMARK  status: ('A' for Active; 'I' for Inactive)
REMARK    1  A    between atoms: _1  and  _3
REMARK    2  A    between atoms: _3  and  _4
REMARK    3  A    between atoms: _3  and  _6
REMARK    4  A    between atoms: _6  and  _7
REMARK    5  A    between atoms: _7  and  _8
REMARK    6  A    between atoms: _8  and  _9
REMARK    7  A    between atoms: _9  and  _10
REMARK    8  A    between atoms: _14  and  _16
REMARK    9  A    between atoms: _16  and  _17
REMARK   10  A    between atoms: _16  and  _19
REMARK   11  A    between atoms: _19  and  _20
REMARK   12  A    between atoms: _22  and  _24
REMARK   13  A    between atoms: _24  and  _25
REMARK   14  A    between atoms: _27  and  _29
REMARK   15  A    between atoms: _29  and  _30
REMARK   16  A    between atoms: _29  and  _32
REMARK   17  A    between atoms: _32  and  _33
REMARK   18  A    between atoms: _33  and  _34
REMARK   19  A    between atoms: _39  and  _41
REMARK   20  A    between atoms: _41  and  _42
REMARK   21  A    between atoms: _44  and  _46
REMARK   22  A    between atoms: _46  and  _47
REMARK   23  A    between atoms: _46  and  _49
REMARK   24  A    between atoms: _49  and  _50
REMARK   25  A    between atoms: _55  and  _56
REMARK   26  A    between atoms: _58  and  _60
REMARK   27  A    between atoms: _60  and  _61
REMARK   28  A    between atoms: _60  and  _63
REMARK   29  A    between atoms: _63  and  _64
REMARK   30  A    between atoms: _67  and  _69
REMARK   31  A    between atoms: _69  and  _70
REMARK   32  A    between atoms: _69  and  _72
REMARK   33  A    between atoms: _75  and  _77
REMARK   34  A    between atoms: _77  and  _78
REMARK   35  A    between atoms: _77  and  _80
REMARK   36  A    between atoms: _80  and  _81
REMARK   37  A    between atoms: _84  and  _86
REMARK   38  A    between atoms: _86  and  _87
REMARK   39  A    between atoms: _86  and  _89
REMARK   40  A    between atoms: _89  and  _90
REMARK   41  A    between atoms: _93  and  _95
REMARK   42  A    between atoms: _95  and  _96
REMARK   43  A    between atoms: _98  and  _100
REMARK   44  A    between atoms: _100  and  _101
REMARK   45  A    between atoms: _100  and  _103
REMARK   46  A    between atoms: _103  and  _104
REMARK   47  A    between atoms: _106  and  _108
REMARK   48  A    between atoms: _108  and  _109
REMARK   49  A    between atoms: _108  and  _111
REMARK   50  A    between atoms: _111  and  _112
REMARK   51  A    between atoms: _114  and  _116
REMARK   52  A    between atoms: _116  and  _117
REMARK   53  A    between atoms: _116  and  _119
REMARK   54  A    between atoms: _119  and  _120
REMARK   55  A    between atoms: _125  and  _127
REMARK   56  A    between atoms: _127  and  _128
REMARK   57  A    between atoms: _127  and  _130
REMARK   58  A    between atoms: _130  and  _131
REMARK   59  A    between atoms: _136  and  _137
REMARK   60  A    between atoms: _139  and  _141
REMARK   61  A    between atoms: _141  and  _142
REMARK   62  A    between atoms: _141  and  _144
REMARK   63  A    between atoms: _148  and  _149
REMARK   64  A    between atoms: _154  and  _156
REMARK   65  A    between atoms: _156  and  _157
REMARK   66  A    between atoms: _156  and  _159
REMARK   67  A    between atoms: _159  and  _160
REMARK   68  A    between atoms: _165  and  _166
REMARK   69  A    between atoms: _168  and  _170
REMARK   70  A    between atoms: _170  and  _171
REMARK   71  A    between atoms: _170  and  _173
REMARK   72  A    between atoms: _173  and  _174
REMARK   73  A    between atoms: _177  and  _179
REMARK   74  A    between atoms: _179  and  _180
REMARK   75  A    between atoms: _179  and  _182
REMARK   76  A    between atoms: _182  and  _183
REMARK   77  A    between atoms: _183  and  _184
REMARK   78  A    between atoms: _189  and  _191
REMARK   79  A    between atoms: _191  and  _192
REMARK   80  A    between atoms: _194  and  _196
REMARK   81  A    between atoms: _196  and  _197
REMARK   82  A    between atoms: _196  and  _199
REMARK   83  A    between atoms: _199  and  _200
REMARK   84  A    between atoms: _200  and  _201
REMARK   85  A    between atoms: _201  and  _202
REMARK   86  A    between atoms: _202  and  _203
REMARK   87  A    between atoms: _207  and  _209
REMARK   88  A    between atoms: _209  and  _210
REMARK   89  A    between atoms: _209  and  _212
REMARK   90  A    between atoms: _212  and  _213
REMARK   91  A    between atoms: _223  and  _225
REMARK   92  A    between atoms: _225  and  _226
REMARK   93  A    between atoms: _225  and  _228
REMARK   94  A    between atoms: _228  and  _229
REMARK   95  A    between atoms: _232  and  _234
REMARK   96  A    between atoms: _234  and  _235
REMARK   97  A    between atoms: _234  and  _237
REMARK   98  A    between atoms: _237  and  _238
REMARK   99  A    between atoms: _238  and  _239
REMARK  100  A    between atoms: _239  and  _240
REMARK  101  A    between atoms: _240  and  _241
REMARK  102  A    between atoms: _245  and  _247
REMARK  103  A    between atoms: _247  and  _248
REMARK  104  A    between atoms: _247  and  _250
REMARK  105  A    between atoms: _250  and  _251
REMARK  106  A    between atoms: _257  and  _259
REMARK  107  A    between atoms: _259  and  _260
REMARK  108  A    between atoms: _259  and  _262
REMARK  109  A    between atoms: _262  and  _263
REMARK  110  A    between atoms: _269  and  _271
REMARK  111  A    between atoms: _271  and  _272
REMARK  112  A    between atoms: _271  and  _274
REMARK  113  A    between atoms: _274  and  _275
REMARK  114  A    between atoms: _278  and  _280
REMARK  115  A    between atoms: _280  and  _281
REMARK  116  A    between atoms: _280  and  _283
REMARK  117  A    between atoms: _283  and  _284
REMARK  118  A    between atoms: _286  and  _288
REMARK  119  A    between atoms: _288  and  _289
REMARK  120  A    between atoms: _288  and  _291
REMARK  121  A    between atoms: _291  and  _292
REMARK  122  A    between atoms: _302  and  _304
REMARK  123  A    between atoms: _304  and  _305
REMARK  124  A    between atoms: _307  and  _309
REMARK  125  A    between atoms: _309  and  _310
REMARK  126  A    between atoms: _309  and  _312
REMARK  127  A    between atoms: _312  and  _313
REMARK  128  A    between atoms: _316  and  _318
REMARK  129  A    between atoms: _318  and  _319
REMARK  130  A    between atoms: _318  and  _321
REMARK  131  A    between atoms: _321  and  _322
REMARK  132  A    between atoms: _325  and  _327
REMARK  133  A    between atoms: _327  and  _328
REMARK  134  A    between atoms: _330  and  _332
REMARK  135  A    between atoms: _332  and  _333
REMARK  136  A    between atoms: _332  and  _335
REMARK  137  A    between atoms: _335  and  _336
REMARK  138  A    between atoms: _339  and  _341
REMARK  139  A    between atoms: _341  and  _342
REMARK  140  A    between atoms: _345  and  _347
REMARK  141  A    between atoms: _347  and  _348
REMARK  142  A    between atoms: _347  and  _350
REMARK  143  A    between atoms: _350  and  _351
REMARK  144  A    between atoms: _356  and  _357
REMARK  145  A    between atoms: _359  and  _361
REMARK  146  A    between atoms: _361  and  _362
REMARK  147  A    between atoms: _361  and  _364
REMARK  148  A    between atoms: _364  and  _365
REMARK  149  A    between atoms: _368  and  _370
REMARK  150  A    between atoms: _370  and  _371
REMARK  151  A    between atoms: _374  and  _376
REMARK  152  A    between atoms: _376  and  _377
REMARK  153  A    between atoms: _376  and  _379
REMARK  154  A    between atoms: _379  and  _380
REMARK  155  A    between atoms: _380  and  _381
REMARK  156  A    between atoms: _381  and  _382
REMARK  157  A    between atoms: _391  and  _393
REMARK  158  A    between atoms: _393  and  _394
REMARK  159  A    between atoms: _393  and  _396
REMARK  160  A    between atoms: _396  and  _397
REMARK  161  A    between atoms: _407  and  _409
REMARK  162  A    between atoms: _409  and  _410
REMARK  163  A    between atoms: _409  and  _412
REMARK  164  A    between atoms: _412  and  _413
REMARK  165  A    between atoms: _418  and  _419
REMARK  166  A    between atoms: _421  and  _423
REMARK  167  A    between atoms: _423  and  _424
REMARK  168  A    between atoms: _423  and  _426
REMARK  169  A    between atoms: _426  and  _427
REMARK  170  A    between atoms: _430  and  _432
REMARK  171  A    between atoms: _432  and  _433
REMARK  172  A    between atoms: _432  and  _435
REMARK  173  A    between atoms: _435  and  _436
REMARK  174  A    between atoms: _436  and  _437
REMARK  175  A    between atoms: _437  and  _438
REMARK  176  A    between atoms: _438  and  _439
REMARK  177  A    between atoms: _443  and  _445
REMARK  178  A    between atoms: _445  and  _446
REMARK  179  A    between atoms: _445  and  _448
REMARK  180  A    between atoms: _448  and  _449
REMARK  181  A    between atoms: _452  and  _454
REMARK  182  A    between atoms: _454  and  _455
REMARK  183  A    between atoms: _454  and  _457
REMARK  184  A    between atoms: _460  and  _462
REMARK  185  A    between atoms: _462  and  _463
REMARK  186  A    between atoms: _462  and  _465
REMARK  187  A    between atoms: _465  and  _466
REMARK  188  A    between atoms: _469  and  _471
REMARK  189  A    between atoms: _471  and  _472
REMARK  190  A    between atoms: _471  and  _474
REMARK  191  A    between atoms: _474  and  _475
REMARK  192  A    between atoms: _477  and  _479
REMARK  193  A    between atoms: _479  and  _480
REMARK  194  A    between atoms: _482  and  _484
REMARK  195  A    between atoms: _484  and  _485
REMARK  196  A    between atoms: _484  and  _487
REMARK  197  A    between atoms: _487  and  _488
REMARK  198  A    between atoms: _491  and  _493
REMARK  199  A    between atoms: _493  and  _494
REMARK  200  A    between atoms: _493  and  _496
REMARK  201  A    between atoms: _496  and  _497
REMARK  202  A    between atoms: _500  and  _502
REMARK  203  A    between atoms: _502  and  _503
REMARK  204  A    between atoms: _502  and  _505
REMARK  205  A    between atoms: _505  and  _506
REMARK  206  A    between atoms: _511  and  _513
REMARK  207  A    between atoms: _513  and  _514
REMARK  208  A    between atoms: _513  and  _516
REMARK  209  A    between atoms: _516  and  _517
REMARK  210  A    between atoms: _520  and  _522
REMARK  211  A    between atoms: _522  and  _523
REMARK  212  A    between atoms: _522  and  _525
REMARK  213  A    between atoms: _525  and  _526
REMARK  214  A    between atoms: _526  and  _527
REMARK  215  A    between atoms: _527  and  _528
REMARK  216  A    between atoms: _537  and  _539
REMARK  217  A    between atoms: _539  and  _540
REMARK  218  A    between atoms: _539  and  _542
REMARK  219  A    between atoms: _542  and  _543
REMARK  220  A    between atoms: _546  and  _548
REMARK  221  A    between atoms: _548  and  _549
REMARK  222  A    between atoms: _551  and  _553
REMARK  223  A    between atoms: _553  and  _554
REMARK  224  A    between atoms: _553  and  _556
REMARK  225  A    between atoms: _556  and  _557
REMARK  226  A    between atoms: _557  and  _558
REMARK  227  A    between atoms: _561  and  _563
REMARK  228  A    between atoms: _563  and  _564
REMARK  229  A    between atoms: _563  and  _566
REMARK  230  A    between atoms: _566  and  _567
REMARK  231  A    between atoms: _567  and  _568
REMARK  232  A    between atoms: _568  and  _569
REMARK  233  A    between atoms: _578  and  _580
REMARK  234  A    between atoms: _580  and  _581
REMARK  235  A    between atoms: _580  and  _583
REMARK  236  A    between atoms: _583  and  _584
REMARK  237  A    between atoms: _584  and  _585
REMARK  238  A    between atoms: _585  and  _586
REMARK  239  A    between atoms: _586  and  _587
REMARK  240  A    between atoms: _591  and  _593
REMARK  241  A    between atoms: _593  and  _594
REMARK  242  A    between atoms: _593  and  _596
REMARK  243  A    between atoms: _596  and  _597
REMARK  244  A    between atoms: _603  and  _605
REMARK  245  A    between atoms: _605  and  _606
REMARK  246  A    between atoms: _609  and  _611
REMARK  247  A    between atoms: _611  and  _612
REMARK  248  A    between atoms: _611  and  _614
REMARK  249  A    between atoms: _614  and  _615
REMARK  250  A    between atoms: _618  and  _620
REMARK  251  A    between atoms: _620  and  _621
REMARK  252  A    between atoms: _620  and  _623
REMARK  253  A    between atoms: _623  and  _624
REMARK  254  A    between atoms: _626  and  _628
REMARK  255  A    between atoms: _628  and  _629
REMARK  256  A    between atoms: _628  and  _631
REMARK  257  A    between atoms: _631  and  _632
REMARK  258  A    between atoms: _632  and  _633
REMARK  259  A    between atoms: _638  and  _640
REMARK  260  A    between atoms: _640  and  _641
REMARK  261  A    between atoms: _640  and  _643
REMARK  262  A    between atoms: _643  and  _644
REMARK  263  A    between atoms: _646  and  _648
REMARK  264  A    between atoms: _648  and  _649
REMARK  265  A    between atoms: _648  and  _651
REMARK  266  A    between atoms: _651  and  _652
REMARK  267  A    between atoms: _654  and  _656
REMARK  268  A    between atoms: _656  and  _657
REMARK  269  A    between atoms: _656  and  _659
REMARK  270  A    between atoms: _659  and  _660
REMARK  271  A    between atoms: _663  and  _665
REMARK  272  A    between atoms: _665  and  _666
REMARK  273  A    between atoms: _668  and  _670
REMARK  274  A    between atoms: _670  and  _671
REMARK  275  A    between atoms: _670  and  _673
REMARK  276  A    between atoms: _673  and  _674
REMARK  277  A    between atoms: _677  and  _679
REMARK  278  A    between atoms: _679  and  _680
REMARK  279  A    between atoms: _679  and  _682
REMARK  280  A    between atoms: _685  and  _687
REMARK  281  A    between atoms: _687  and  _688
REMARK  282  A    between atoms: _690  and  _692
REMARK  283  A    between atoms: _692  and  _693
REMARK  284  A    between atoms: _696  and  _698
REMARK  285  A    between atoms: _698  and  _699
REMARK  286  A    between atoms: _698  and  _701
REMARK                            x       y       z     vdW  Elec       q    Type
REMARK                         _______ _______ _______ _____ _____    ______ ____
ROOT
ATOM      1  O   HOH     1      11.174 -15.411  -4.347  0.00  0.00    +0.000 OA
ENDROOT
TORSDOF 0
REMARK  Name = ../refined-set-2016/1fkn/1fkn_pocket.pdb
REMARK  286 active torsions:
REMARK  status: ('A' for Active; 'I' for Inactive)
REMARK    1  A    between atoms: _1  and  _3
REMARK    2  A    between atoms: _3  and  _4
REMARK    3  A    between atoms: _3  and  _6
REMARK    4  A    between atoms: _6  and  _7
REMARK    5  A    between atoms: _7  and  _8
REMARK    6  A    between atoms: _8  and  _9
REMARK    7  A    between atoms: _9  and  _10
REMARK    8  A    between atoms: _14  and  _16
REMARK    9  A    between atoms: _16  and  _17
REMARK   10  A    between atoms: _16  and  _19
REMARK   11  A    between atoms: _19  and  _20
REMARK   12  A    between atoms: _22  and  _24
REMARK   13  A    between atoms: _24  and  _25
REMARK   14  A    between atoms: _27  and  _29
REMARK   15  A    between atoms: _29  and  _30
REMARK   16  A    between atoms: _29  and  _32
REMARK   17  A    between atoms: _32  and  _33
REMARK   18  A    between atoms: _33  and  _34
REMARK   19  A    between atoms: _39  and  _41
REMARK   20  A    between atoms: _41  and  _42
REMARK   21  A    between atoms: _44  and  _46
REMARK   22  A    between atoms: _46  and  _47
REMARK   23  A    between atoms: _46  and  _49
REMARK   24  A    between atoms: _49  and  _50
REMARK   25  A    between atoms: _55  and  _56
REMARK   26  A    between atoms: _58  and  _60
REMARK   27  A    between atoms: _60  and  _61
REMARK   28  A    between atoms: _60  and  _63
REMARK   29  A    between atoms: _63  and  _64
REMARK   30  A    between atoms: _67  and  _69
REMARK   31  A    between atoms: _69  and  _70
REMARK   32  A    between atoms: _69  and  _72
REMARK   33  A    between atoms: _75  and  _77
REMARK   34  A    between atoms: _77  and  _78
REMARK   35  A    between atoms: _77  and  _80
REMARK   36  A    between atoms: _80  and  _81
REMARK   37  A    between atoms: _84  and  _86
REMARK   38  A    between atoms: _86  and  _87
REMARK   39  A    between atoms: _86  and  _89
REMARK   40  A    between atoms: _89  and  _90
REMARK   41  A    between atoms: _93  and  _95
REMARK   42  A    between atoms: _95  and  _96
REMARK   43  A    between atoms: _98  and  _100
REMARK   44  A    between atoms: _100  and  _101
REMARK   45  A    between atoms: _100  and  _103
REMARK   46  A    between atoms: _103  and  _104
REMARK   47  A    between atoms: _106  and  _108
REMARK   48  A    between atoms: _108  and  _109
REMARK   49  A    between atoms: _108  and  _111
REMARK   50  A    between atoms: _111  and  _112
REMARK   51  A    between atoms: _114  and  _116
REMARK   52  A    between atoms: _116  and  _117
REMARK   53  A    between atoms: _116  and  _119
REMARK   54  A    between atoms: _119  and  _120
REMARK   55  A    between atoms: _125  and  _127
REMARK   56  A    between atoms: _127  and  _128
REMARK   57  A    between atoms: _127  and  _130
REMARK   58  A    between atoms: _130  and  _131
REMARK   59  A    between atoms: _136  and  _137
REMARK   60  A    between atoms: _139  and  _141
REMARK   61  A    between atoms: _141  and  _142
REMARK   62  A    between atoms: _141  and  _144
REMARK   63  A    between atoms: _148  and  _149
REMARK   64  A    between atoms: _154  and  _156
REMARK   65  A    between atoms: _156  and  _157
REMARK   66  A    between atoms: _156  and  _159
REMARK   67  A    between atoms: _159  and  _160
REMARK   68  A    between atoms: _165  and  _166
REMARK   69  A    between atoms: _168  and  _170
REMARK   70  A    between atoms: _170  and  _171
REMARK   71  A    between atoms: _170  and  _173
REMARK   72  A    between atoms: _173  and  _174
REMARK   73  A    between atoms: _177  and  _179
REMARK   74  A    between atoms: _179  and  _180
REMARK   75  A    between atoms: _179  and  _182
REMARK   76  A    between atoms: _182  and  _183
REMARK   77  A    between atoms: _183  and  _184
REMARK   78  A    between atoms: _189  and  _191
REMARK   79  A    between atoms: _191  and  _192
REMARK   80  A    between atoms: _194  and  _196
REMARK   81  A    between atoms: _196  and  _197
REMARK   82  A    between atoms: _196  and  _199
REMARK   83  A    between atoms: _199  and  _200
REMARK   84  A    between atoms: _200  and  _201
REMARK   85  A    between atoms: _201  and  _202
REMARK   86  A    between atoms: _202  and  _203
REMARK   87  A    between atoms: _207  and  _209
REMARK   88  A    between atoms: _209  and  _210
REMARK   89  A    between atoms: _209  and  _212
REMARK   90  A    between atoms: _212  and  _213
REMARK   91  A    between atoms: _223  and  _225
REMARK   92  A    between atoms: _225  and  _226
REMARK   93  A    between atoms: _225  and  _228
REMARK   94  A    between atoms: _228  and  _229
REMARK   95  A    between atoms: _232  and  _234
REMARK   96  A    between atoms: _234  and  _235
REMARK   97  A    between atoms: _234  and  _237
REMARK   98  A    between atoms: _237  and  _238
REMARK   99  A    between atoms: _238  and  _239
REMARK  100  A    between atoms: _239  and  _240
REMARK  101  A    between atoms: _240  and  _241
REMARK  102  A    between atoms: _245  and  _247
REMARK  103  A    between atoms: _247  and  _248
REMARK  104  A    between atoms: _247  and  _250
REMARK  105  A    between atoms: _250  and  _251
REMARK  106  A    between atoms: _257  and  _259
REMARK  107  A    between atoms: _259  and  _260
REMARK  108  A    between atoms: _259  and  _262
REMARK  109  A    between atoms: _262  and  _263
REMARK  110  A    between atoms: _269  and  _271
REMARK  111  A    between atoms: _271  and  _272
REMARK  112  A    between atoms: _271  and  _274
REMARK  113  A    between atoms: _274  and  _275
REMARK  114  A    between atoms: _278  and  _280
REMARK  115  A    between atoms: _280  and  _281
REMARK  116  A    between atoms: _280  and  _283
REMARK  117  A    between atoms: _283  and  _284
REMARK  118  A    between atoms: _286  and  _288
REMARK  119  A    between atoms: _288  and  _289
REMARK  120  A    between atoms: _288  and  _291
REMARK  121  A    between atoms: _291  and  _292
REMARK  122  A    between atoms: _302  and  _304
REMARK  123  A    between atoms: _304  and  _305
REMARK  124  A    between atoms: _307  and  _309
REMARK  125  A    between atoms: _309  and  _310
REMARK  126  A    between atoms: _309  and  _312
REMARK  127  A    between atoms: _312  and  _313
REMARK  128  A    between atoms: _316  and  _318
REMARK  129  A    between atoms: _318  and  _319
REMARK  130  A    between atoms: _318  and  _321
REMARK  131  A    between atoms: _321  and  _322
REMARK  132  A    between atoms: _325  and  _327
REMARK  133  A    between atoms: _327  and  _328
REMARK  134  A    between atoms: _330  and  _332
REMARK  135  A    between atoms: _332  and  _333
REMARK  136  A    between atoms: _332  and  _335
REMARK  137  A    between atoms: _335  and  _336
REMARK  138  A    between atoms: _339  and  _341
REMARK  139  A    between atoms: _341  and  _342
REMARK  140  A    between atoms: _345  and  _347
REMARK  141  A    between atoms: _347  and  _348
REMARK  142  A    between atoms: _347  and  _350
REMARK  143  A    between atoms: _350  and  _351
REMARK  144  A    between atoms: _356  and  _357
REMARK  145  A    between atoms: _359  and  _361
REMARK  146  A    between atoms: _361  and  _362
REMARK  147  A    between atoms: _361  and  _364
REMARK  148  A    between atoms: _364  and  _365
REMARK  149  A    between atoms: _368  and  _370
REMARK  150  A    between atoms: _370  and  _371
REMARK  151  A    between atoms: _374  and  _376
REMARK  152  A    between atoms: _376  and  _377
REMARK  153  A    between atoms: _376  and  _379
REMARK  154  A    between atoms: _379  and  _380
REMARK  155  A    between atoms: _380  and  _381
REMARK  156  A    between atoms: _381  and  _382
REMARK  157  A    between atoms: _391  and  _393
REMARK  158  A    between atoms: _393  and  _394
REMARK  159  A    between atoms: _393  and  _396
REMARK  160  A    between atoms: _396  and  _397
REMARK  161  A    between atoms: _407  and  _409
REMARK  162  A    between atoms: _409  and  _410
REMARK  163  A    between atoms: _409  and  _412
REMARK  164  A    between atoms: _412  and  _413
REMARK  165  A    between atoms: _418  and  _419
REMARK  166  A    between atoms: _421  and  _423
REMARK  167  A    between atoms: _423  and  _424
REMARK  168  A    between atoms: _423  and  _426
REMARK  169  A    between atoms: _426  and  _427
REMARK  170  A    between atoms: _430  and  _432
REMARK  171  A    between atoms: _432  and  _433
REMARK  172  A    between atoms: _432  and  _435
REMARK  173  A    between atoms: _435  and  _436
REMARK  174  A    between atoms: _436  and  _437
REMARK  175  A    between atoms: _437  and  _438
REMARK  176  A    between atoms: _438  and  _439
REMARK  177  A    between atoms: _443  and  _445
REMARK  178  A    between atoms: _445  and  _446
REMARK  179  A    between atoms: _445  and  _448
REMARK  180  A    between atoms: _448  and  _449
REMARK  181  A    between atoms: _452  and  _454
REMARK  182  A    between atoms: _454  and  _455
REMARK  183  A    between atoms: _454  and  _457
REMARK  184  A    between atoms: _460  and  _462
REMARK  185  A    between atoms: _462  and  _463
REMARK  186  A    between atoms: _462  and  _465
REMARK  187  A    between atoms: _465  and  _466
REMARK  188  A    between atoms: _469  and  _471
REMARK  189  A    between atoms: _471  and  _472
REMARK  190  A    between atoms: _471  and  _474
REMARK  191  A    between atoms: _474  and  _475
REMARK  192  A    between atoms: _477  and  _479
REMARK  193  A    between atoms: _479  and  _480
REMARK  194  A    between atoms: _482  and  _484
REMARK  195  A    between atoms: _484  and  _485
REMARK  196  A    between atoms: _484  and  _487
REMARK  197  A    between atoms: _487  and  _488
REMARK  198  A    between atoms: _491  and  _493
REMARK  199  A    between atoms: _493  and  _494
REMARK  200  A    between atoms: _493  and  _496
REMARK  201  A    between atoms: _496  and  _497
REMARK  202  A    between atoms: _500  and  _502
REMARK  203  A    between atoms: _502  and  _503
REMARK  204  A    between atoms: _502  and  _505
REMARK  205  A    between atoms: _505  and  _506
REMARK  206  A    between atoms: _511  and  _513
REMARK  207  A    between atoms: _513  and  _514
REMARK  208  A    between atoms: _513  and  _516
REMARK  209  A    between atoms: _516  and  _517
REMARK  210  A    between atoms: _520  and  _522
REMARK  211  A    between atoms: _522  and  _523
REMARK  212  A    between atoms: _522  and  _525
REMARK  213  A    between atoms: _525  and  _526
REMARK  214  A    between atoms: _526  and  _527
REMARK  215  A    between atoms: _527  and  _528
REMARK  216  A    between atoms: _537  and  _539
REMARK  217  A    between atoms: _539  and  _540
REMARK  218  A    between atoms: _539  and  _542
REMARK  219  A    between atoms: _542  and  _543
REMARK  220  A    between atoms: _546  and  _548
REMARK  221  A    between atoms: _548  and  _549
REMARK  222  A    between atoms: _551  and  _553
REMARK  223  A    between atoms: _553  and  _554
REMARK  224  A    between atoms: _553  and  _556
REMARK  225  A    between atoms: _556  and  _557
REMARK  226  A    between atoms: _557  and  _558
REMARK  227  A    between atoms: _561  and  _563
REMARK  228  A    between atoms: _563  and  _564
REMARK  229  A    between atoms: _563  and  _566
REMARK  230  A    between atoms: _566  and  _567
REMARK  231  A    between atoms: _567  and  _568
REMARK  232  A    between atoms: _568  and  _569
REMARK  233  A    between atoms: _578  and  _580
REMARK  234  A    between atoms: _580  and  _581
REMARK  235  A    between atoms: _580  and  _583
REMARK  236  A    between atoms: _583  and  _584
REMARK  237  A    between atoms: _584  and  _585
REMARK  238  A    between atoms: _585  and  _586
REMARK  239  A    between atoms: _586  and  _587
REMARK  240  A    between atoms: _591  and  _593
REMARK  241  A    between atoms: _593  and  _594
REMARK  242  A    between atoms: _593  and  _596
REMARK  243  A    between atoms: _596  and  _597
REMARK  244  A    between atoms: _603  and  _605
REMARK  245  A    between atoms: _605  and  _606
REMARK  246  A    between atoms: _609  and  _611
REMARK  247  A    between atoms: _611  and  _612
REMARK  248  A    between atoms: _611  and  _614
REMARK  249  A    between atoms: _614  and  _615
REMARK  250  A    between atoms: _618  and  _620
REMARK  251  A    between atoms: _620  and  _621
REMARK  252  A    between atoms: _620  and  _623
REMARK  253  A    between atoms: _623  and  _624
REMARK  254  A    between atoms: _626  and  _628
REMARK  255  A    between atoms: _628  and  _629
REMARK  256  A    between atoms: _628  and  _631
REMARK  257  A    between atoms: _631  and  _632
REMARK  258  A    between atoms: _632  and  _633
REMARK  259  A    between atoms: _638  and  _640
REMARK  260  A    between atoms: _640  and  _641
REMARK  261  A    between atoms: _640  and  _643
REMARK  262  A    between atoms: _643  and  _644
REMARK  263  A    between atoms: _646  and  _648
REMARK  264  A    between atoms: _648  and  _649
REMARK  265  A    between atoms: _648  and  _651
REMARK  266  A    between atoms: _651  and  _652
REMARK  267  A    between atoms: _654  and  _656
REMARK  268  A    between atoms: _656  and  _657
REMARK  269  A    between atoms: _656  and  _659
REMARK  270  A    between atoms: _659  and  _660
REMARK  271  A    between atoms: _663  and  _665
REMARK  272  A    between atoms: _665  and  _666
REMARK  273  A    between atoms: _668  and  _670
REMARK  274  A    between atoms: _670  and  _671
REMARK  275  A    between atoms: _670  and  _673
REMARK  276  A    between atoms: _673  and  _674
REMARK  277  A    between atoms: _677  and  _679
REMARK  278  A    between atoms: _679  and  _680
REMARK  279  A    between atoms: _679  and  _682
REMARK  280  A    between atoms: _685  and  _687
REMARK  281  A    between atoms: _687  and  _688
REMARK  282  A    between atoms: _690  and  _692
REMARK  283  A    between atoms: _692  and  _693
REMARK  284  A    between atoms: _696  and  _698
REMARK  285  A    between atoms: _698  and  _699
REMARK  286  A    between atoms: _698  and  _701
REMARK                            x       y       z     vdW  Elec       q    Type
REMARK                         _______ _______ _______ _____ _____    ______ ____
ROOT
ATOM      1  O   HOH     1      10.388  12.110  -5.268  0.00  0.00    +0.000 OA
ENDROOT
TORSDOF 0
REMARK  Name = ../refined-set-2016/1fkn/1fkn_pocket.pdb
REMARK  286 active torsions:
REMARK  status: ('A' for Active; 'I' for Inactive)
REMARK    1  A    between atoms: _1  and  _3
REMARK    2  A    between atoms: _3  and  _4
REMARK    3  A    between atoms: _3  and  _6
REMARK    4  A    between atoms: _6  and  _7
REMARK    5  A    between atoms: _7  and  _8
REMARK    6  A    between atoms: _8  and  _9
REMARK    7  A    between atoms: _9  and  _10
REMARK    8  A    between atoms: _14  and  _16
REMARK    9  A    between atoms: _16  and  _17
REMARK   10  A    between atoms: _16  and  _19
REMARK   11  A    between atoms: _19  and  _20
REMARK   12  A    between atoms: _22  and  _24
REMARK   13  A    between atoms: _24  and  _25
REMARK   14  A    between atoms: _27  and  _29
REMARK   15  A    between atoms: _29  and  _30
REMARK   16  A    between atoms: _29  and  _32
REMARK   17  A    between atoms: _32  and  _33
REMARK   18  A    between atoms: _33  and  _34
REMARK   19  A    between atoms: _39  and  _41
REMARK   20  A    between atoms: _41  and  _42
REMARK   21  A    between atoms: _44  and  _46
REMARK   22  A    between atoms: _46  and  _47
REMARK   23  A    between atoms: _46  and  _49
REMARK   24  A    between atoms: _49  and  _50
REMARK   25  A    between atoms: _55  and  _56
REMARK   26  A    between atoms: _58  and  _60
REMARK   27  A    between atoms: _60  and  _61
REMARK   28  A    between atoms: _60  and  _63
REMARK   29  A    between atoms: _63  and  _64
REMARK   30  A    between atoms: _67  and  _69
REMARK   31  A    between atoms: _69  and  _70
REMARK   32  A    between atoms: _69  and  _72
REMARK   33  A    between atoms: _75  and  _77
REMARK   34  A    between atoms: _77  and  _78
REMARK   35  A    between atoms: _77  and  _80
REMARK   36  A    between atoms: _80  and  _81
REMARK   37  A    between atoms: _84  and  _86
REMARK   38  A    between atoms: _86  and  _87
REMARK   39  A    between atoms: _86  and  _89
REMARK   40  A    between atoms: _89  and  _90
REMARK   41  A    between atoms: _93  and  _95
REMARK   42  A    between atoms: _95  and  _96
REMARK   43  A    between atoms: _98  and  _100
REMARK   44  A    between atoms: _100  and  _101
REMARK   45  A    between atoms: _100  and  _103
REMARK   46  A    between atoms: _103  and  _104
REMARK   47  A    between atoms: _106  and  _108
REMARK   48  A    between atoms: _108  and  _109
REMARK   49  A    between atoms: _108  and  _111
REMARK   50  A    between atoms: _111  and  _112
REMARK   51  A    between atoms: _114  and  _116
REMARK   52  A    between atoms: _116  and  _117
REMARK   53  A    between atoms: _116  and  _119
REMARK   54  A    between atoms: _119  and  _120
REMARK   55  A    between atoms: _125  and  _127
REMARK   56  A    between atoms: _127  and  _128
REMARK   57  A    between atoms: _127  and  _130
REMARK   58  A    between atoms: _130  and  _131
REMARK   59  A    between atoms: _136  and  _137
REMARK   60  A    between atoms: _139  and  _141
REMARK   61  A    between atoms: _141  and  _142
REMARK   62  A    between atoms: _141  and  _144
REMARK   63  A    between atoms: _148  and  _149
REMARK   64  A    between atoms: _154  and  _156
REMARK   65  A    between atoms: _156  and  _157
REMARK   66  A    between atoms: _156  and  _159
REMARK   67  A    between atoms: _159  and  _160
REMARK   68  A    between atoms: _165  and  _166
REMARK   69  A    between atoms: _168  and  _170
REMARK   70  A    between atoms: _170  and  _171
REMARK   71  A    between atoms: _170  and  _173
REMARK   72  A    between atoms: _173  and  _174
REMARK   73  A    between atoms: _177  and  _179
REMARK   74  A    between atoms: _179  and  _180
REMARK   75  A    between atoms: _179  and  _182
REMARK   76  A    between atoms: _182  and  _183
REMARK   77  A    between atoms: _183  and  _184
REMARK   78  A    between atoms: _189  and  _191
REMARK   79  A    between atoms: _191  and  _192
REMARK   80  A    between atoms: _194  and  _196
REMARK   81  A    between atoms: _196  and  _197
REMARK   82  A    between atoms: _196  and  _199
REMARK   83  A    between atoms: _199  and  _200
REMARK   84  A    between atoms: _200  and  _201
REMARK   85  A    between atoms: _201  and  _202
REMARK   86  A    between atoms: _202  and  _203
REMARK   87  A    between atoms: _207  and  _209
REMARK   88  A    between atoms: _209  and  _210
REMARK   89  A    between atoms: _209  and  _212
REMARK   90  A    between atoms: _212  and  _213
REMARK   91  A    between atoms: _223  and  _225
REMARK   92  A    between atoms: _225  and  _226
REMARK   93  A    between atoms: _225  and  _228
REMARK   94  A    between atoms: _228  and  _229
REMARK   95  A    between atoms: _232  and  _234
REMARK   96  A    between atoms: _234  and  _235
REMARK   97  A    between atoms: _234  and  _237
REMARK   98  A    between atoms: _237  and  _238
REMARK   99  A    between atoms: _238  and  _239
REMARK  100  A    between atoms: _239  and  _240
REMARK  101  A    between atoms: _240  and  _241
REMARK  102  A    between atoms: _245  and  _247
REMARK  103  A    between atoms: _247  and  _248
REMARK  104  A    between atoms: _247  and  _250
REMARK  105  A    between atoms: _250  and  _251
REMARK  106  A    between atoms: _257  and  _259
REMARK  107  A    between atoms: _259  and  _260
REMARK  108  A    between atoms: _259  and  _262
REMARK  109  A    between atoms: _262  and  _263
REMARK  110  A    between atoms: _269  and  _271
REMARK  111  A    between atoms: _271  and  _272
REMARK  112  A    between atoms: _271  and  _274
REMARK  113  A    between atoms: _274  and  _275
REMARK  114  A    between atoms: _278  and  _280
REMARK  115  A    between atoms: _280  and  _281
REMARK  116  A    between atoms: _280  and  _283
REMARK  117  A    between atoms: _283  and  _284
REMARK  118  A    between atoms: _286  and  _288
REMARK  119  A    between atoms: _288  and  _289
REMARK  120  A    between atoms: _288  and  _291
REMARK  121  A    between atoms: _291  and  _292
REMARK  122  A    between atoms: _302  and  _304
REMARK  123  A    between atoms: _304  and  _305
REMARK  124  A    between atoms: _307  and  _309
REMARK  125  A    between atoms: _309  and  _310
REMARK  126  A    between atoms: _309  and  _312
REMARK  127  A    between atoms: _312  and  _313
REMARK  128  A    between atoms: _316  and  _318
REMARK  129  A    between atoms: _318  and  _319
REMARK  130  A    between atoms: _318  and  _321
REMARK  131  A    between atoms: _321  and  _322
REMARK  132  A    between atoms: _325  and  _327
REMARK  133  A    between atoms: _327  and  _328
REMARK  134  A    between atoms: _330  and  _332
REMARK  135  A    between atoms: _332  and  _333
REMARK  136  A    between atoms: _332  and  _335
REMARK  137  A    between atoms: _335  and  _336
REMARK  138  A    between atoms: _339  and  _341
REMARK  139  A    between atoms: _341  and  _342
REMARK  140  A    between atoms: _345  and  _347
REMARK  141  A    between atoms: _347  and  _348
REMARK  142  A    between atoms: _347  and  _350
REMARK  143  A    between atoms: _350  and  _351
REMARK  144  A    between atoms: _356  and  _357
REMARK  145  A    between atoms: _359  and  _361
REMARK  146  A    between atoms: _361  and  _362
REMARK  147  A    between atoms: _361  and  _364
REMARK  148  A    between atoms: _364  and  _365
REMARK  149  A    between atoms: _368  and  _370
REMARK  150  A    between atoms: _370  and  _371
REMARK  151  A    between atoms: _374  and  _376
REMARK  152  A    between atoms: _376  and  _377
REMARK  153  A    between atoms: _376  and  _379
REMARK  154  A    between atoms: _379  and  _380
REMARK  155  A    between atoms: _380  and  _381
REMARK  156  A    between atoms: _381  and  _382
REMARK  157  A    between atoms: _391  and  _393
REMARK  158  A    between atoms: _393  and  _394
REMARK  159  A    between atoms: _393  and  _396
REMARK  160  A    between atoms: _396  and  _397
REMARK  161  A    between atoms: _407  and  _409
REMARK  162  A    between atoms: _409  and  _410
REMARK  163  A    between atoms: _409  and  _412
REMARK  164  A    between atoms: _412  and  _413
REMARK  165  A    between atoms: _418  and  _419
REMARK  166  A    between atoms: _421  and  _423
REMARK  167  A    between atoms: _423  and  _424
REMARK  168  A    between atoms: _423  and  _426
REMARK  169  A    between atoms: _426  and  _427
REMARK  170  A    between atoms: _430  and  _432
REMARK  171  A    between atoms: _432  and  _433
REMARK  172  A    between atoms: _432  and  _435
REMARK  173  A    between atoms: _435  and  _436
REMARK  174  A    between atoms: _436  and  _437
REMARK  175  A    between atoms: _437  and  _438
REMARK  176  A    between atoms: _438  and  _439
REMARK  177  A    between atoms: _443  and  _445
REMARK  178  A    between atoms: _445  and  _446
REMARK  179  A    between atoms: _445  and  _448
REMARK  180  A    between atoms: _448  and  _449
REMARK  181  A    between atoms: _452  and  _454
REMARK  182  A    between atoms: _454  and  _455
REMARK  183  A    between atoms: _454  and  _457
REMARK  184  A    between atoms: _460  and  _462
REMARK  185  A    between atoms: _462  and  _463
REMARK  186  A    between atoms: _462  and  _465
REMARK  187  A    between atoms: _465  and  _466
REMARK  188  A    between atoms: _469  and  _471
REMARK  189  A    between atoms: _471  and  _472
REMARK  190  A    between atoms: _471  and  _474
REMARK  191  A    between atoms: _474  and  _475
REMARK  192  A    between atoms: _477  and  _479
REMARK  193  A    between atoms: _479  and  _480
REMARK  194  A    between atoms: _482  and  _484
REMARK  195  A    between atoms: _484  and  _485
REMARK  196  A    between atoms: _484  and  _487
REMARK  197  A    between atoms: _487  and  _488
REMARK  198  A    between atoms: _491  and  _493
REMARK  199  A    between atoms: _493  and  _494
REMARK  200  A    between atoms: _493  and  _496
REMARK  201  A    between atoms: _496  and  _497
REMARK  202  A    between atoms: _500  and  _502
REMARK  203  A    between atoms: _502  and  _503
REMARK  204  A    between atoms: _502  and  _505
REMARK  205  A    between atoms: _505  and  _506
REMARK  206  A    between atoms: _511  and  _513
REMARK  207  A    between atoms: _513  and  _514
REMARK  208  A    between atoms: _513  and  _516
REMARK  209  A    between atoms: _516  and  _517
REMARK  210  A    between atoms: _520  and  _522
REMARK  211  A    between atoms: _522  and  _523
REMARK  212  A    between atoms: _522  and  _525
REMARK  213  A    between atoms: _525  and  _526
REMARK  214  A    between atoms: _526  and  _527
REMARK  215  A    between atoms: _527  and  _528
REMARK  216  A    between atoms: _537  and  _539
REMARK  217  A    between atoms: _539  and  _540
REMARK  218  A    between atoms: _539  and  _542
REMARK  219  A    between atoms: _542  and  _543
REMARK  220  A    between atoms: _546  and  _548
REMARK  221  A    between atoms: _548  and  _549
REMARK  222  A    between atoms: _551  and  _553
REMARK  223  A    between atoms: _553  and  _554
REMARK  224  A    between atoms: _553  and  _556
REMARK  225  A    between atoms: _556  and  _557
REMARK  226  A    between atoms: _557  and  _558
REMARK  227  A    between atoms: _561  and  _563
REMARK  228  A    between atoms: _563  and  _564
REMARK  229  A    between atoms: _563  and  _566
REMARK  230  A    between atoms: _566  and  _567
REMARK  231  A    between atoms: _567  and  _568
REMARK  232  A    between atoms: _568  and  _569
REMARK  233  A    between atoms: _578  and  _580
REMARK  234  A    between atoms: _580  and  _581
REMARK  235  A    between atoms: _580  and  _583
REMARK  236  A    between atoms: _583  and  _584
REMARK  237  A    between atoms: _584  and  _585
REMARK  238  A    between atoms: _585  and  _586
REMARK  239  A    between atoms: _586  and  _587
REMARK  240  A    between atoms: _591  and  _593
REMARK  241  A    between atoms: _593  and  _594
REMARK  242  A    between atoms: _593  and  _596
REMARK  243  A    between atoms: _596  and  _597
REMARK  244  A    between atoms: _603  and  _605
REMARK  245  A    between atoms: _605  and  _606
REMARK  246  A    between atoms: _609  and  _611
REMARK  247  A    between atoms: _611  and  _612
REMARK  248  A    between atoms: _611  and  _614
REMARK  249  A    between atoms: _614  and  _615
REMARK  250  A    between atoms: _618  and  _620
REMARK  251  A    between atoms: _620  and  _621
REMARK  252  A    between atoms: _620  and  _623
REMARK  253  A    between atoms: _623  and  _624
REMARK  254  A    between atoms: _626  and  _628
REMARK  255  A    between atoms: _628  and  _629
REMARK  256  A    between atoms: _628  and  _631
REMARK  257  A    between atoms: _631  and  _632
REMARK  258  A    between atoms: _632  and  _633
REMARK  259  A    between atoms: _638  and  _640
REMARK  260  A    between atoms: _640  and  _641
REMARK  261  A    between atoms: _640  and  _643
REMARK  262  A    between atoms: _643  and  _644
REMARK  263  A    between atoms: _646  and  _648
REMARK  264  A    between atoms: _648  and  _649
REMARK  265  A    between atoms: _648  and  _651
REMARK  266  A    between atoms: _651  and  _652
REMARK  267  A    between atoms: _654  and  _656
REMARK  268  A    between atoms: _656  and  _657
REMARK  269  A    between atoms: _656  and  _659
REMARK  270  A    between atoms: _659  and  _660
REMARK  271  A    between atoms: _663  and  _665
REMARK  272  A    between atoms: _665  and  _666
REMARK  273  A    between atoms: _668  and  _670
REMARK  274  A    between atoms: _670  and  _671
REMARK  275  A    between atoms: _670  and  _673
REMARK  276  A    between atoms: _673  and  _674
REMARK  277  A    between atoms: _677  and  _679
REMARK  278  A    between atoms: _679  and  _680
REMARK  279  A    between atoms: _679  and  _682
REMARK  280  A    between atoms: _685  and  _687
REMARK  281  A    between atoms: _687  and  _688
REMARK  282  A    between atoms: _690  and  _692
REMARK  283  A    between atoms: _692  and  _693
REMARK  284  A    between atoms: _696  and  _698
REMARK  285  A    between atoms: _698  and  _699
REMARK  286  A    between atoms: _698  and  _701
REMARK                            x       y       z     vdW  Elec       q    Type
REMARK                         _______ _______ _______ _____ _____    ______ ____
ROOT
ATOM      1  O   HOH     1      15.433   9.208 -10.324  0.00  0.00    +0.000 OA
ENDROOT
TORSDOF 0
REMARK  Name = ../refined-set-2016/1fkn/1fkn_pocket.pdb
REMARK  286 active torsions:
REMARK  status: ('A' for Active; 'I' for Inactive)
REMARK    1  A    between atoms: _1  and  _3
REMARK    2  A    between atoms: _3  and  _4
REMARK    3  A    between atoms: _3  and  _6
REMARK    4  A    between atoms: _6  and  _7
REMARK    5  A    between atoms: _7  and  _8
REMARK    6  A    between atoms: _8  and  _9
REMARK    7  A    between atoms: _9  and  _10
REMARK    8  A    between atoms: _14  and  _16
REMARK    9  A    between atoms: _16  and  _17
REMARK   10  A    between atoms: _16  and  _19
REMARK   11  A    between atoms: _19  and  _20
REMARK   12  A    between atoms: _22  and  _24
REMARK   13  A    between atoms: _24  and  _25
REMARK   14  A    between atoms: _27  and  _29
REMARK   15  A    between atoms: _29  and  _30
REMARK   16  A    between atoms: _29  and  _32
REMARK   17  A    between atoms: _32  and  _33
REMARK   18  A    between atoms: _33  and  _34
REMARK   19  A    between atoms: _39  and  _41
REMARK   20  A    between atoms: _41  and  _42
REMARK   21  A    between atoms: _44  and  _46
REMARK   22  A    between atoms: _46  and  _47
REMARK   23  A    between atoms: _46  and  _49
REMARK   24  A    between atoms: _49  and  _50
REMARK   25  A    between atoms: _55  and  _56
REMARK   26  A    between atoms: _58  and  _60
REMARK   27  A    between atoms: _60  and  _61
REMARK   28  A    between atoms: _60  and  _63
REMARK   29  A    between atoms: _63  and  _64
REMARK   30  A    between atoms: _67  and  _69
REMARK   31  A    between atoms: _69  and  _70
REMARK   32  A    between atoms: _69  and  _72
REMARK   33  A    between atoms: _75  and  _77
REMARK   34  A    between atoms: _77  and  _78
REMARK   35  A    between atoms: _77  and  _80
REMARK   36  A    between atoms: _80  and  _81
REMARK   37  A    between atoms: _84  and  _86
REMARK   38  A    between atoms: _86  and  _87
REMARK   39  A    between atoms: _86  and  _89
REMARK   40  A    between atoms: _89  and  _90
REMARK   41  A    between atoms: _93  and  _95
REMARK   42  A    between atoms: _95  and  _96
REMARK   43  A    between atoms: _98  and  _100
REMARK   44  A    between atoms: _100  and  _101
REMARK   45  A    between atoms: _100  and  _103
REMARK   46  A    between atoms: _103  and  _104
REMARK   47  A    between atoms: _106  and  _108
REMARK   48  A    between atoms: _108  and  _109
REMARK   49  A    between atoms: _108  and  _111
REMARK   50  A    between atoms: _111  and  _112
REMARK   51  A    between atoms: _114  and  _116
REMARK   52  A    between atoms: _116  and  _117
REMARK   53  A    between atoms: _116  and  _119
REMARK   54  A    between atoms: _119  and  _120
REMARK   55  A    between atoms: _125  and  _127
REMARK   56  A    between atoms: _127  and  _128
REMARK   57  A    between atoms: _127  and  _130
REMARK   58  A    between atoms: _130  and  _131
REMARK   59  A    between atoms: _136  and  _137
REMARK   60  A    between atoms: _139  and  _141
REMARK   61  A    between atoms: _141  and  _142
REMARK   62  A    between atoms: _141  and  _144
REMARK   63  A    between atoms: _148  and  _149
REMARK   64  A    between atoms: _154  and  _156
REMARK   65  A    between atoms: _156  and  _157
REMARK   66  A    between atoms: _156  and  _159
REMARK   67  A    between atoms: _159  and  _160
REMARK   68  A    between atoms: _165  and  _166
REMARK   69  A    between atoms: _168  and  _170
REMARK   70  A    between atoms: _170  and  _171
REMARK   71  A    between atoms: _170  and  _173
REMARK   72  A    between atoms: _173  and  _174
REMARK   73  A    between atoms: _177  and  _179
REMARK   74  A    between atoms: _179  and  _180
REMARK   75  A    between atoms: _179  and  _182
REMARK   76  A    between atoms: _182  and  _183
REMARK   77  A    between atoms: _183  and  _184
REMARK   78  A    between atoms: _189  and  _191
REMARK   79  A    between atoms: _191  and  _192
REMARK   80  A    between atoms: _194  and  _196
REMARK   81  A    between atoms: _196  and  _197
REMARK   82  A    between atoms: _196  and  _199
REMARK   83  A    between atoms: _199  and  _200
REMARK   84  A    between atoms: _200  and  _201
REMARK   85  A    between atoms: _201  and  _202
REMARK   86  A    between atoms: _202  and  _203
REMARK   87  A    between atoms: _207  and  _209
REMARK   88  A    between atoms: _209  and  _210
REMARK   89  A    between atoms: _209  and  _212
REMARK   90  A    between atoms: _212  and  _213
REMARK   91  A    between atoms: _223  and  _225
REMARK   92  A    between atoms: _225  and  _226
REMARK   93  A    between atoms: _225  and  _228
REMARK   94  A    between atoms: _228  and  _229
REMARK   95  A    between atoms: _232  and  _234
REMARK   96  A    between atoms: _234  and  _235
REMARK   97  A    between atoms: _234  and  _237
REMARK   98  A    between atoms: _237  and  _238
REMARK   99  A    between atoms: _238  and  _239
REMARK  100  A    between atoms: _239  and  _240
REMARK  101  A    between atoms: _240  and  _241
REMARK  102  A    between atoms: _245  and  _247
REMARK  103  A    between atoms: _247  and  _248
REMARK  104  A    between atoms: _247  and  _250
REMARK  105  A    between atoms: _250  and  _251
REMARK  106  A    between atoms: _257  and  _259
REMARK  107  A    between atoms: _259  and  _260
REMARK  108  A    between atoms: _259  and  _262
REMARK  109  A    between atoms: _262  and  _263
REMARK  110  A    between atoms: _269  and  _271
REMARK  111  A    between atoms: _271  and  _272
REMARK  112  A    between atoms: _271  and  _274
REMARK  113  A    between atoms: _274  and  _275
REMARK  114  A    between atoms: _278  and  _280
REMARK  115  A    between atoms: _280  and  _281
REMARK  116  A    between atoms: _280  and  _283
REMARK  117  A    between atoms: _283  and  _284
REMARK  118  A    between atoms: _286  and  _288
REMARK  119  A    between atoms: _288  and  _289
REMARK  120  A    between atoms: _288  and  _291
REMARK  121  A    between atoms: _291  and  _292
REMARK  122  A    between atoms: _302  and  _304
REMARK  123  A    between atoms: _304  and  _305
REMARK  124  A    between atoms: _307  and  _309
REMARK  125  A    between atoms: _309  and  _310
REMARK  126  A    between atoms: _309  and  _312
REMARK  127  A    between atoms: _312  and  _313
REMARK  128  A    between atoms: _316  and  _318
REMARK  129  A    between atoms: _318  and  _319
REMARK  130  A    between atoms: _318  and  _321
REMARK  131  A    between atoms: _321  and  _322
REMARK  132  A    between atoms: _325  and  _327
REMARK  133  A    between atoms: _327  and  _328
REMARK  134  A    between atoms: _330  and  _332
REMARK  135  A    between atoms: _332  and  _333
REMARK  136  A    between atoms: _332  and  _335
REMARK  137  A    between atoms: _335  and  _336
REMARK  138  A    between atoms: _339  and  _341
REMARK  139  A    between atoms: _341  and  _342
REMARK  140  A    between atoms: _345  and  _347
REMARK  141  A    between atoms: _347  and  _348
REMARK  142  A    between atoms: _347  and  _350
REMARK  143  A    between atoms: _350  and  _351
REMARK  144  A    between atoms: _356  and  _357
REMARK  145  A    between atoms: _359  and  _361
REMARK  146  A    between atoms: _361  and  _362
REMARK  147  A    between atoms: _361  and  _364
REMARK  148  A    between atoms: _364  and  _365
REMARK  149  A    between atoms: _368  and  _370
REMARK  150  A    between atoms: _370  and  _371
REMARK  151  A    between atoms: _374  and  _376
REMARK  152  A    between atoms: _376  and  _377
REMARK  153  A    between atoms: _376  and  _379
REMARK  154  A    between atoms: _379  and  _380
REMARK  155  A    between atoms: _380  and  _381
REMARK  156  A    between atoms: _381  and  _382
REMARK  157  A    between atoms: _391  and  _393
REMARK  158  A    between atoms: _393  and  _394
REMARK  159  A    between atoms: _393  and  _396
REMARK  160  A    between atoms: _396  and  _397
REMARK  161  A    between atoms: _407  and  _409
REMARK  162  A    between atoms: _409  and  _410
REMARK  163  A    between atoms: _409  and  _412
REMARK  164  A    between atoms: _412  and  _413
REMARK  165  A    between atoms: _418  and  _419
REMARK  166  A    between atoms: _421  and  _423
REMARK  167  A    between atoms: _423  and  _424
REMARK  168  A    between atoms: _423  and  _426
REMARK  169  A    between atoms: _426  and  _427
REMARK  170  A    between atoms: _430  and  _432
REMARK  171  A    between atoms: _432  and  _433
REMARK  172  A    between atoms: _432  and  _435
REMARK  173  A    between atoms: _435  and  _436
REMARK  174  A    between atoms: _436  and  _437
REMARK  175  A    between atoms: _437  and  _438
REMARK  176  A    between atoms: _438  and  _439
REMARK  177  A    between atoms: _443  and  _445
REMARK  178  A    between atoms: _445  and  _446
REMARK  179  A    between atoms: _445  and  _448
REMARK  180  A    between atoms: _448  and  _449
REMARK  181  A    between atoms: _452  and  _454
REMARK  182  A    between atoms: _454  and  _455
REMARK  183  A    between atoms: _454  and  _457
REMARK  184  A    between atoms: _460  and  _462
REMARK  185  A    between atoms: _462  and  _463
REMARK  186  A    between atoms: _462  and  _465
REMARK  187  A    between atoms: _465  and  _466
REMARK  188  A    between atoms: _469  and  _471
REMARK  189  A    between atoms: _471  and  _472
REMARK  190  A    between atoms: _471  and  _474
REMARK  191  A    between atoms: _474  and  _475
REMARK  192  A    between atoms: _477  and  _479
REMARK  193  A    between atoms: _479  and  _480
REMARK  194  A    between atoms: _482  and  _484
REMARK  195  A    between atoms: _484  and  _485
REMARK  196  A    between atoms: _484  and  _487
REMARK  197  A    between atoms: _487  and  _488
REMARK  198  A    between atoms: _491  and  _493
REMARK  199  A    between atoms: _493  and  _494
REMARK  200  A    between atoms: _493  and  _496
REMARK  201  A    between atoms: _496  and  _497
REMARK  202  A    between atoms: _500  and  _502
REMARK  203  A    between atoms: _502  and  _503
REMARK  204  A    between atoms: _502  and  _505
REMARK  205  A    between atoms: _505  and  _506
REMARK  206  A    between atoms: _511  and  _513
REMARK  207  A    between atoms: _513  and  _514
REMARK  208  A    between atoms: _513  and  _516
REMARK  209  A    between atoms: _516  and  _517
REMARK  210  A    between atoms: _520  and  _522
REMARK  211  A    between atoms: _522  and  _523
REMARK  212  A    between atoms: _522  and  _525
REMARK  213  A    between atoms: _525  and  _526
REMARK  214  A    between atoms: _526  and  _527
REMARK  215  A    between atoms: _527  and  _528
REMARK  216  A    between atoms: _537  and  _539
REMARK  217  A    between atoms: _539  and  _540
REMARK  218  A    between atoms: _539  and  _542
REMARK  219  A    between atoms: _542  and  _543
REMARK  220  A    between atoms: _546  and  _548
REMARK  221  A    between atoms: _548  and  _549
REMARK  222  A    between atoms: _551  and  _553
REMARK  223  A    between atoms: _553  and  _554
REMARK  224  A    between atoms: _553  and  _556
REMARK  225  A    between atoms: _556  and  _557
REMARK  226  A    between atoms: _557  and  _558
REMARK  227  A    between atoms: _561  and  _563
REMARK  228  A    between atoms: _563  and  _564
REMARK  229  A    between atoms: _563  and  _566
REMARK  230  A    between atoms: _566  and  _567
REMARK  231  A    between atoms: _567  and  _568
REMARK  232  A    between atoms: _568  and  _569
REMARK  233  A    between atoms: _578  and  _580
REMARK  234  A    between atoms: _580  and  _581
REMARK  235  A    between atoms: _580  and  _583
REMARK  236  A    between atoms: _583  and  _584
REMARK  237  A    between atoms: _584  and  _585
REMARK  238  A    between atoms: _585  and  _586
REMARK  239  A    between atoms: _586  and  _587
REMARK  240  A    between atoms: _591  and  _593
REMARK  241  A    between atoms: _593  and  _594
REMARK  242  A    between atoms: _593  and  _596
REMARK  243  A    between atoms: _596  and  _597
REMARK  244  A    between atoms: _603  and  _605
REMARK  245  A    between atoms: _605  and  _606
REMARK  246  A    between atoms: _609  and  _611
REMARK  247  A    between atoms: _611  and  _612
REMARK  248  A    between atoms: _611  and  _614
REMARK  249  A    between atoms: _614  and  _615
REMARK  250  A    between atoms: _618  and  _620
REMARK  251  A    between atoms: _620  and  _621
REMARK  252  A    between atoms: _620  and  _623
REMARK  253  A    between atoms: _623  and  _624
REMARK  254  A    between atoms: _626  and  _628
REMARK  255  A    between atoms: _628  and  _629
REMARK  256  A    between atoms: _628  and  _631
REMARK  257  A    between atoms: _631  and  _632
REMARK  258  A    between atoms: _632  and  _633
REMARK  259  A    between atoms: _638  and  _640
REMARK  260  A    between atoms: _640  and  _641
REMARK  261  A    between atoms: _640  and  _643
REMARK  262  A    between atoms: _643  and  _644
REMARK  263  A    between atoms: _646  and  _648
REMARK  264  A    between atoms: _648  and  _649
REMARK  265  A    between atoms: _648  and  _651
REMARK  266  A    between atoms: _651  and  _652
REMARK  267  A    between atoms: _654  and  _656
REMARK  268  A    between atoms: _656  and  _657
REMARK  269  A    between atoms: _656  and  _659
REMARK  270  A    between atoms: _659  and  _660
REMARK  271  A    between atoms: _663  and  _665
REMARK  272  A    between atoms: _665  and  _666
REMARK  273  A    between atoms: _668  and  _670
REMARK  274  A    between atoms: _670  and  _671
REMARK  275  A    between atoms: _670  and  _673
REMARK  276  A    between atoms: _673  and  _674
REMARK  277  A    between atoms: _677  and  _679
REMARK  278  A    between atoms: _679  and  _680
REMARK  279  A    between atoms: _679  and  _682
REMARK  280  A    between atoms: _685  and  _687
REMARK  281  A    between atoms: _687  and  _688
REMARK  282  A    between atoms: _690  and  _692
REMARK  283  A    between atoms: _692  and  _693
REMARK  284  A    between atoms: _696  and  _698
REMARK  285  A    between atoms: _698  and  _699
REMARK  286  A    between atoms: _698  and  _701
REMARK                            x       y       z     vdW  Elec       q    Type
REMARK                         _______ _______ _______ _____ _____    ______ ____
ROOT
ATOM      1  O   HOH     1      -2.103  -8.287   5.060  0.00  0.00    +0.000 OA
ENDROOT
TORSDOF 0
REMARK  Name = ../refined-set-2016/1fkn/1fkn_pocket.pdb
REMARK  286 active torsions:
REMARK  status: ('A' for Active; 'I' for Inactive)
REMARK    1  A    between atoms: _1  and  _3
REMARK    2  A    between atoms: _3  and  _4
REMARK    3  A    between atoms: _3  and  _6
REMARK    4  A    between atoms: _6  and  _7
REMARK    5  A    between atoms: _7  and  _8
REMARK    6  A    between atoms: _8  and  _9
REMARK    7  A    between atoms: _9  and  _10
REMARK    8  A    between atoms: _14  and  _16
REMARK    9  A    between atoms: _16  and  _17
REMARK   10  A    between atoms: _16  and  _19
REMARK   11  A    between atoms: _19  and  _20
REMARK   12  A    between atoms: _22  and  _24
REMARK   13  A    between atoms: _24  and  _25
REMARK   14  A    between atoms: _27  and  _29
REMARK   15  A    between atoms: _29  and  _30
REMARK   16  A    between atoms: _29  and  _32
REMARK   17  A    between atoms: _32  and  _33
REMARK   18  A    between atoms: _33  and  _34
REMARK   19  A    between atoms: _39  and  _41
REMARK   20  A    between atoms: _41  and  _42
REMARK   21  A    between atoms: _44  and  _46
REMARK   22  A    between atoms: _46  and  _47
REMARK   23  A    between atoms: _46  and  _49
REMARK   24  A    between atoms: _49  and  _50
REMARK   25  A    between atoms: _55  and  _56
REMARK   26  A    between atoms: _58  and  _60
REMARK   27  A    between atoms: _60  and  _61
REMARK   28  A    between atoms: _60  and  _63
REMARK   29  A    between atoms: _63  and  _64
REMARK   30  A    between atoms: _67  and  _69
REMARK   31  A    between atoms: _69  and  _70
REMARK   32  A    between atoms: _69  and  _72
REMARK   33  A    between atoms: _75  and  _77
REMARK   34  A    between atoms: _77  and  _78
REMARK   35  A    between atoms: _77  and  _80
REMARK   36  A    between atoms: _80  and  _81
REMARK   37  A    between atoms: _84  and  _86
REMARK   38  A    between atoms: _86  and  _87
REMARK   39  A    between atoms: _86  and  _89
REMARK   40  A    between atoms: _89  and  _90
REMARK   41  A    between atoms: _93  and  _95
REMARK   42  A    between atoms: _95  and  _96
REMARK   43  A    between atoms: _98  and  _100
REMARK   44  A    between atoms: _100  and  _101
REMARK   45  A    between atoms: _100  and  _103
REMARK   46  A    between atoms: _103  and  _104
REMARK   47  A    between atoms: _106  and  _108
REMARK   48  A    between atoms: _108  and  _109
REMARK   49  A    between atoms: _108  and  _111
REMARK   50  A    between atoms: _111  and  _112
REMARK   51  A    between atoms: _114  and  _116
REMARK   52  A    between atoms: _116  and  _117
REMARK   53  A    between atoms: _116  and  _119
REMARK   54  A    between atoms: _119  and  _120
REMARK   55  A    between atoms: _125  and  _127
REMARK   56  A    between atoms: _127  and  _128
REMARK   57  A    between atoms: _127  and  _130
REMARK   58  A    between atoms: _130  and  _131
REMARK   59  A    between atoms: _136  and  _137
REMARK   60  A    between atoms: _139  and  _141
REMARK   61  A    between atoms: _141  and  _142
REMARK   62  A    between atoms: _141  and  _144
REMARK   63  A    between atoms: _148  and  _149
REMARK   64  A    between atoms: _154  and  _156
REMARK   65  A    between atoms: _156  and  _157
REMARK   66  A    between atoms: _156  and  _159
REMARK   67  A    between atoms: _159  and  _160
REMARK   68  A    between atoms: _165  and  _166
REMARK   69  A    between atoms: _168  and  _170
REMARK   70  A    between atoms: _170  and  _171
REMARK   71  A    between atoms: _170  and  _173
REMARK   72  A    between atoms: _173  and  _174
REMARK   73  A    between atoms: _177  and  _179
REMARK   74  A    between atoms: _179  and  _180
REMARK   75  A    between atoms: _179  and  _182
REMARK   76  A    between atoms: _182  and  _183
REMARK   77  A    between atoms: _183  and  _184
REMARK   78  A    between atoms: _189  and  _191
REMARK   79  A    between atoms: _191  and  _192
REMARK   80  A    between atoms: _194  and  _196
REMARK   81  A    between atoms: _196  and  _197
REMARK   82  A    between atoms: _196  and  _199
REMARK   83  A    between atoms: _199  and  _200
REMARK   84  A    between atoms: _200  and  _201
REMARK   85  A    between atoms: _201  and  _202
REMARK   86  A    between atoms: _202  and  _203
REMARK   87  A    between atoms: _207  and  _209
REMARK   88  A    between atoms: _209  and  _210
REMARK   89  A    between atoms: _209  and  _212
REMARK   90  A    between atoms: _212  and  _213
REMARK   91  A    between atoms: _223  and  _225
REMARK   92  A    between atoms: _225  and  _226
REMARK   93  A    between atoms: _225  and  _228
REMARK   94  A    between atoms: _228  and  _229
REMARK   95  A    between atoms: _232  and  _234
REMARK   96  A    between atoms: _234  and  _235
REMARK   97  A    between atoms: _234  and  _237
REMARK   98  A    between atoms: _237  and  _238
REMARK   99  A    between atoms: _238  and  _239
REMARK  100  A    between atoms: _239  and  _240
REMARK  101  A    between atoms: _240  and  _241
REMARK  102  A    between atoms: _245  and  _247
REMARK  103  A    between atoms: _247  and  _248
REMARK  104  A    between atoms: _247  and  _250
REMARK  105  A    between atoms: _250  and  _251
REMARK  106  A    between atoms: _257  and  _259
REMARK  107  A    between atoms: _259  and  _260
REMARK  108  A    between atoms: _259  and  _262
REMARK  109  A    between atoms: _262  and  _263
REMARK  110  A    between atoms: _269  and  _271
REMARK  111  A    between atoms: _271  and  _272
REMARK  112  A    between atoms: _271  and  _274
REMARK  113  A    between atoms: _274  and  _275
REMARK  114  A    between atoms: _278  and  _280
REMARK  115  A    between atoms: _280  and  _281
REMARK  116  A    between atoms: _280  and  _283
REMARK  117  A    between atoms: _283  and  _284
REMARK  118  A    between atoms: _286  and  _288
REMARK  119  A    between atoms: _288  and  _289
REMARK  120  A    between atoms: _288  and  _291
REMARK  121  A    between atoms: _291  and  _292
REMARK  122  A    between atoms: _302  and  _304
REMARK  123  A    between atoms: _304  and  _305
REMARK  124  A    between atoms: _307  and  _309
REMARK  125  A    between atoms: _309  and  _310
REMARK  126  A    between atoms: _309  and  _312
REMARK  127  A    between atoms: _312  and  _313
REMARK  128  A    between atoms: _316  and  _318
REMARK  129  A    between atoms: _318  and  _319
REMARK  130  A    between atoms: _318  and  _321
REMARK  131  A    between atoms: _321  and  _322
REMARK  132  A    between atoms: _325  and  _327
REMARK  133  A    between atoms: _327  and  _328
REMARK  134  A    between atoms: _330  and  _332
REMARK  135  A    between atoms: _332  and  _333
REMARK  136  A    between atoms: _332  and  _335
REMARK  137  A    between atoms: _335  and  _336
REMARK  138  A    between atoms: _339  and  _341
REMARK  139  A    between atoms: _341  and  _342
REMARK  140  A    between atoms: _345  and  _347
REMARK  141  A    between atoms: _347  and  _348
REMARK  142  A    between atoms: _347  and  _350
REMARK  143  A    between atoms: _350  and  _351
REMARK  144  A    between atoms: _356  and  _357
REMARK  145  A    between atoms: _359  and  _361
REMARK  146  A    between atoms: _361  and  _362
REMARK  147  A    between atoms: _361  and  _364
REMARK  148  A    between atoms: _364  and  _365
REMARK  149  A    between atoms: _368  and  _370
REMARK  150  A    between atoms: _370  and  _371
REMARK  151  A    between atoms: _374  and  _376
REMARK  152  A    between atoms: _376  and  _377
REMARK  153  A    between atoms: _376  and  _379
REMARK  154  A    between atoms: _379  and  _380
REMARK  155  A    between atoms: _380  and  _381
REMARK  156  A    between atoms: _381  and  _382
REMARK  157  A    between atoms: _391  and  _393
REMARK  158  A    between atoms: _393  and  _394
REMARK  159  A    between atoms: _393  and  _396
REMARK  160  A    between atoms: _396  and  _397
REMARK  161  A    between atoms: _407  and  _409
REMARK  162  A    between atoms: _409  and  _410
REMARK  163  A    between atoms: _409  and  _412
REMARK  164  A    between atoms: _412  and  _413
REMARK  165  A    between atoms: _418  and  _419
REMARK  166  A    between atoms: _421  and  _423
REMARK  167  A    between atoms: _423  and  _424
REMARK  168  A    between atoms: _423  and  _426
REMARK  169  A    between atoms: _426  and  _427
REMARK  170  A    between atoms: _430  and  _432
REMARK  171  A    between atoms: _432  and  _433
REMARK  172  A    between atoms: _432  and  _435
REMARK  173  A    between atoms: _435  and  _436
REMARK  174  A    between atoms: _436  and  _437
REMARK  175  A    between atoms: _437  and  _438
REMARK  176  A    between atoms: _438  and  _439
REMARK  177  A    between atoms: _443  and  _445
REMARK  178  A    between atoms: _445  and  _446
REMARK  179  A    between atoms: _445  and  _448
REMARK  180  A    between atoms: _448  and  _449
REMARK  181  A    between atoms: _452  and  _454
REMARK  182  A    between atoms: _454  and  _455
REMARK  183  A    between atoms: _454  and  _457
REMARK  184  A    between atoms: _460  and  _462
REMARK  185  A    between atoms: _462  and  _463
REMARK  186  A    between atoms: _462  and  _465
REMARK  187  A    between atoms: _465  and  _466
REMARK  188  A    between atoms: _469  and  _471
REMARK  189  A    between atoms: _471  and  _472
REMARK  190  A    between atoms: _471  and  _474
REMARK  191  A    between atoms: _474  and  _475
REMARK  192  A    between atoms: _477  and  _479
REMARK  193  A    between atoms: _479  and  _480
REMARK  194  A    between atoms: _482  and  _484
REMARK  195  A    between atoms: _484  and  _485
REMARK  196  A    between atoms: _484  and  _487
REMARK  197  A    between atoms: _487  and  _488
REMARK  198  A    between atoms: _491  and  _493
REMARK  199  A    between atoms: _493  and  _494
REMARK  200  A    between atoms: _493  and  _496
REMARK  201  A    between atoms: _496  and  _497
REMARK  202  A    between atoms: _500  and  _502
REMARK  203  A    between atoms: _502  and  _503
REMARK  204  A    between atoms: _502  and  _505
REMARK  205  A    between atoms: _505  and  _506
REMARK  206  A    between atoms: _511  and  _513
REMARK  207  A    between atoms: _513  and  _514
REMARK  208  A    between atoms: _513  and  _516
REMARK  209  A    between atoms: _516  and  _517
REMARK  210  A    between atoms: _520  and  _522
REMARK  211  A    between atoms: _522  and  _523
REMARK  212  A    between atoms: _522  and  _525
REMARK  213  A    between atoms: _525  and  _526
REMARK  214  A    between atoms: _526  and  _527
REMARK  215  A    between atoms: _527  and  _528
REMARK  216  A    between atoms: _537  and  _539
REMARK  217  A    between atoms: _539  and  _540
REMARK  218  A    between atoms: _539  and  _542
REMARK  219  A    between atoms: _542  and  _543
REMARK  220  A    between atoms: _546  and  _548
REMARK  221  A    between atoms: _548  and  _549
REMARK  222  A    between atoms: _551  and  _553
REMARK  223  A    between atoms: _553  and  _554
REMARK  224  A    between atoms: _553  and  _556
REMARK  225  A    between atoms: _556  and  _557
REMARK  226  A    between atoms: _557  and  _558
REMARK  227  A    between atoms: _561  and  _563
REMARK  228  A    between atoms: _563  and  _564
REMARK  229  A    between atoms: _563  and  _566
REMARK  230  A    between atoms: _566  and  _567
REMARK  231  A    between atoms: _567  and  _568
REMARK  232  A    between atoms: _568  and  _569
REMARK  233  A    between atoms: _578  and  _580
REMARK  234  A    between atoms: _580  and  _581
REMARK  235  A    between atoms: _580  and  _583
REMARK  236  A    between atoms: _583  and  _584
REMARK  237  A    between atoms: _584  and  _585
REMARK  238  A    between atoms: _585  and  _586
REMARK  239  A    between atoms: _586  and  _587
REMARK  240  A    between atoms: _591  and  _593
REMARK  241  A    between atoms: _593  and  _594
REMARK  242  A    between atoms: _593  and  _596
REMARK  243  A    between atoms: _596  and  _597
REMARK  244  A    between atoms: _603  and  _605
REMARK  245  A    between atoms: _605  and  _606
REMARK  246  A    between atoms: _609  and  _611
REMARK  247  A    between atoms: _611  and  _612
REMARK  248  A    between atoms: _611  and  _614
REMARK  249  A    between atoms: _614  and  _615
REMARK  250  A    between atoms: _618  and  _620
REMARK  251  A    between atoms: _620  and  _621
REMARK  252  A    between atoms: _620  and  _623
REMARK  253  A    between atoms: _623  and  _624
REMARK  254  A    between atoms: _626  and  _628
REMARK  255  A    between atoms: _628  and  _629
REMARK  256  A    between atoms: _628  and  _631
REMARK  257  A    between atoms: _631  and  _632
REMARK  258  A    between atoms: _632  and  _633
REMARK  259  A    between atoms: _638  and  _640
REMARK  260  A    between atoms: _640  and  _641
REMARK  261  A    between atoms: _640  and  _643
REMARK  262  A    between atoms: _643  and  _644
REMARK  263  A    between atoms: _646  and  _648
REMARK  264  A    between atoms: _648  and  _649
REMARK  265  A    between atoms: _648  and  _651
REMARK  266  A    between atoms: _651  and  _652
REMARK  267  A    between atoms: _654  and  _656
REMARK  268  A    between atoms: _656  and  _657
REMARK  269  A    between atoms: _656  and  _659
REMARK  270  A    between atoms: _659  and  _660
REMARK  271  A    between atoms: _663  and  _665
REMARK  272  A    between atoms: _665  and  _666
REMARK  273  A    between atoms: _668  and  _670
REMARK  274  A    between atoms: _670  and  _671
REMARK  275  A    between atoms: _670  and  _673
REMARK  276  A    between atoms: _673  and  _674
REMARK  277  A    between atoms: _677  and  _679
REMARK  278  A    between atoms: _679  and  _680
REMARK  279  A    between atoms: _679  and  _682
REMARK  280  A    between atoms: _685  and  _687
REMARK  281  A    between atoms: _687  and  _688
REMARK  282  A    between atoms: _690  and  _692
REMARK  283  A    between atoms: _692  and  _693
REMARK  284  A    between atoms: _696  and  _698
REMARK  285  A    between atoms: _698  and  _699
REMARK  286  A    between atoms: _698  and  _701
REMARK                            x       y       z     vdW  Elec       q    Type
REMARK                         _______ _______ _______ _____ _____    ______ ____
ROOT
ATOM      1  O   HOH     1       7.971   4.049   1.192  0.00  0.00    +0.000 OA
ENDROOT
TORSDOF 0
REMARK  Name = ../refined-set-2016/1fkn/1fkn_pocket.pdb
REMARK  286 active torsions:
REMARK  status: ('A' for Active; 'I' for Inactive)
REMARK    1  A    between atoms: _1  and  _3
REMARK    2  A    between atoms: _3  and  _4
REMARK    3  A    between atoms: _3  and  _6
REMARK    4  A    between atoms: _6  and  _7
REMARK    5  A    between atoms: _7  and  _8
REMARK    6  A    between atoms: _8  and  _9
REMARK    7  A    between atoms: _9  and  _10
REMARK    8  A    between atoms: _14  and  _16
REMARK    9  A    between atoms: _16  and  _17
REMARK   10  A    between atoms: _16  and  _19
REMARK   11  A    between atoms: _19  and  _20
REMARK   12  A    between atoms: _22  and  _24
REMARK   13  A    between atoms: _24  and  _25
REMARK   14  A    between atoms: _27  and  _29
REMARK   15  A    between atoms: _29  and  _30
REMARK   16  A    between atoms: _29  and  _32
REMARK   17  A    between atoms: _32  and  _33
REMARK   18  A    between atoms: _33  and  _34
REMARK   19  A    between atoms: _39  and  _41
REMARK   20  A    between atoms: _41  and  _42
REMARK   21  A    between atoms: _44  and  _46
REMARK   22  A    between atoms: _46  and  _47
REMARK   23  A    between atoms: _46  and  _49
REMARK   24  A    between atoms: _49  and  _50
REMARK   25  A    between atoms: _55  and  _56
REMARK   26  A    between atoms: _58  and  _60
REMARK   27  A    between atoms: _60  and  _61
REMARK   28  A    between atoms: _60  and  _63
REMARK   29  A    between atoms: _63  and  _64
REMARK   30  A    between atoms: _67  and  _69
REMARK   31  A    between atoms: _69  and  _70
REMARK   32  A    between atoms: _69  and  _72
REMARK   33  A    between atoms: _75  and  _77
REMARK   34  A    between atoms: _77  and  _78
REMARK   35  A    between atoms: _77  and  _80
REMARK   36  A    between atoms: _80  and  _81
REMARK   37  A    between atoms: _84  and  _86
REMARK   38  A    between atoms: _86  and  _87
REMARK   39  A    between atoms: _86  and  _89
REMARK   40  A    between atoms: _89  and  _90
REMARK   41  A    between atoms: _93  and  _95
REMARK   42  A    between atoms: _95  and  _96
REMARK   43  A    between atoms: _98  and  _100
REMARK   44  A    between atoms: _100  and  _101
REMARK   45  A    between atoms: _100  and  _103
REMARK   46  A    between atoms: _103  and  _104
REMARK   47  A    between atoms: _106  and  _108
REMARK   48  A    between atoms: _108  and  _109
REMARK   49  A    between atoms: _108  and  _111
REMARK   50  A    between atoms: _111  and  _112
REMARK   51  A    between atoms: _114  and  _116
REMARK   52  A    between atoms: _116  and  _117
REMARK   53  A    between atoms: _116  and  _119
REMARK   54  A    between atoms: _119  and  _120
REMARK   55  A    between atoms: _125  and  _127
REMARK   56  A    between atoms: _127  and  _128
REMARK   57  A    between atoms: _127  and  _130
REMARK   58  A    between atoms: _130  and  _131
REMARK   59  A    between atoms: _136  and  _137
REMARK   60  A    between atoms: _139  and  _141
REMARK   61  A    between atoms: _141  and  _142
REMARK   62  A    between atoms: _141  and  _144
REMARK   63  A    between atoms: _148  and  _149
REMARK   64  A    between atoms: _154  and  _156
REMARK   65  A    between atoms: _156  and  _157
REMARK   66  A    between atoms: _156  and  _159
REMARK   67  A    between atoms: _159  and  _160
REMARK   68  A    between atoms: _165  and  _166
REMARK   69  A    between atoms: _168  and  _170
REMARK   70  A    between atoms: _170  and  _171
REMARK   71  A    between atoms: _170  and  _173
REMARK   72  A    between atoms: _173  and  _174
REMARK   73  A    between atoms: _177  and  _179
REMARK   74  A    between atoms: _179  and  _180
REMARK   75  A    between atoms: _179  and  _182
REMARK   76  A    between atoms: _182  and  _183
REMARK   77  A    between atoms: _183  and  _184
REMARK   78  A    between atoms: _189  and  _191
REMARK   79  A    between atoms: _191  and  _192
REMARK   80  A    between atoms: _194  and  _196
REMARK   81  A    between atoms: _196  and  _197
REMARK   82  A    between atoms: _196  and  _199
REMARK   83  A    between atoms: _199  and  _200
REMARK   84  A    between atoms: _200  and  _201
REMARK   85  A    between atoms: _201  and  _202
REMARK   86  A    between atoms: _202  and  _203
REMARK   87  A    between atoms: _207  and  _209
REMARK   88  A    between atoms: _209  and  _210
REMARK   89  A    between atoms: _209  and  _212
REMARK   90  A    between atoms: _212  and  _213
REMARK   91  A    between atoms: _223  and  _225
REMARK   92  A    between atoms: _225  and  _226
REMARK   93  A    between atoms: _225  and  _228
REMARK   94  A    between atoms: _228  and  _229
REMARK   95  A    between atoms: _232  and  _234
REMARK   96  A    between atoms: _234  and  _235
REMARK   97  A    between atoms: _234  and  _237
REMARK   98  A    between atoms: _237  and  _238
REMARK   99  A    between atoms: _238  and  _239
REMARK  100  A    between atoms: _239  and  _240
REMARK  101  A    between atoms: _240  and  _241
REMARK  102  A    between atoms: _245  and  _247
REMARK  103  A    between atoms: _247  and  _248
REMARK  104  A    between atoms: _247  and  _250
REMARK  105  A    between atoms: _250  and  _251
REMARK  106  A    between atoms: _257  and  _259
REMARK  107  A    between atoms: _259  and  _260
REMARK  108  A    between atoms: _259  and  _262
REMARK  109  A    between atoms: _262  and  _263
REMARK  110  A    between atoms: _269  and  _271
REMARK  111  A    between atoms: _271  and  _272
REMARK  112  A    between atoms: _271  and  _274
REMARK  113  A    between atoms: _274  and  _275
REMARK  114  A    between atoms: _278  and  _280
REMARK  115  A    between atoms: _280  and  _281
REMARK  116  A    between atoms: _280  and  _283
REMARK  117  A    between atoms: _283  and  _284
REMARK  118  A    between atoms: _286  and  _288
REMARK  119  A    between atoms: _288  and  _289
REMARK  120  A    between atoms: _288  and  _291
REMARK  121  A    between atoms: _291  and  _292
REMARK  122  A    between atoms: _302  and  _304
REMARK  123  A    between atoms: _304  and  _305
REMARK  124  A    between atoms: _307  and  _309
REMARK  125  A    between atoms: _309  and  _310
REMARK  126  A    between atoms: _309  and  _312
REMARK  127  A    between atoms: _312  and  _313
REMARK  128  A    between atoms: _316  and  _318
REMARK  129  A    between atoms: _318  and  _319
REMARK  130  A    between atoms: _318  and  _321
REMARK  131  A    between atoms: _321  and  _322
REMARK  132  A    between atoms: _325  and  _327
REMARK  133  A    between atoms: _327  and  _328
REMARK  134  A    between atoms: _330  and  _332
REMARK  135  A    between atoms: _332  and  _333
REMARK  136  A    between atoms: _332  and  _335
REMARK  137  A    between atoms: _335  and  _336
REMARK  138  A    between atoms: _339  and  _341
REMARK  139  A    between atoms: _341  and  _342
REMARK  140  A    between atoms: _345  and  _347
REMARK  141  A    between atoms: _347  and  _348
REMARK  142  A    between atoms: _347  and  _350
REMARK  143  A    between atoms: _350  and  _351
REMARK  144  A    between atoms: _356  and  _357
REMARK  145  A    between atoms: _359  and  _361
REMARK  146  A    between atoms: _361  and  _362
REMARK  147  A    between atoms: _361  and  _364
REMARK  148  A    between atoms: _364  and  _365
REMARK  149  A    between atoms: _368  and  _370
REMARK  150  A    between atoms: _370  and  _371
REMARK  151  A    between atoms: _374  and  _376
REMARK  152  A    between atoms: _376  and  _377
REMARK  153  A    between atoms: _376  and  _379
REMARK  154  A    between atoms: _379  and  _380
REMARK  155  A    between atoms: _380  and  _381
REMARK  156  A    between atoms: _381  and  _382
REMARK  157  A    between atoms: _391  and  _393
REMARK  158  A    between atoms: _393  and  _394
REMARK  159  A    between atoms: _393  and  _396
REMARK  160  A    between atoms: _396  and  _397
REMARK  161  A    between atoms: _407  and  _409
REMARK  162  A    between atoms: _409  and  _410
REMARK  163  A    between atoms: _409  and  _412
REMARK  164  A    between atoms: _412  and  _413
REMARK  165  A    between atoms: _418  and  _419
REMARK  166  A    between atoms: _421  and  _423
REMARK  167  A    between atoms: _423  and  _424
REMARK  168  A    between atoms: _423  and  _426
REMARK  169  A    between atoms: _426  and  _427
REMARK  170  A    between atoms: _430  and  _432
REMARK  171  A    between atoms: _432  and  _433
REMARK  172  A    between atoms: _432  and  _435
REMARK  173  A    between atoms: _435  and  _436
REMARK  174  A    between atoms: _436  and  _437
REMARK  175  A    between atoms: _437  and  _438
REMARK  176  A    between atoms: _438  and  _439
REMARK  177  A    between atoms: _443  and  _445
REMARK  178  A    between atoms: _445  and  _446
REMARK  179  A    between atoms: _445  and  _448
REMARK  180  A    between atoms: _448  and  _449
REMARK  181  A    between atoms: _452  and  _454
REMARK  182  A    between atoms: _454  and  _455
REMARK  183  A    between atoms: _454  and  _457
REMARK  184  A    between atoms: _460  and  _462
REMARK  185  A    between atoms: _462  and  _463
REMARK  186  A    between atoms: _462  and  _465
REMARK  187  A    between atoms: _465  and  _466
REMARK  188  A    between atoms: _469  and  _471
REMARK  189  A    between atoms: _471  and  _472
REMARK  190  A    between atoms: _471  and  _474
REMARK  191  A    between atoms: _474  and  _475
REMARK  192  A    between atoms: _477  and  _479
REMARK  193  A    between atoms: _479  and  _480
REMARK  194  A    between atoms: _482  and  _484
REMARK  195  A    between atoms: _484  and  _485
REMARK  196  A    between atoms: _484  and  _487
REMARK  197  A    between atoms: _487  and  _488
REMARK  198  A    between atoms: _491  and  _493
REMARK  199  A    between atoms: _493  and  _494
REMARK  200  A    between atoms: _493  and  _496
REMARK  201  A    between atoms: _496  and  _497
REMARK  202  A    between atoms: _500  and  _502
REMARK  203  A    between atoms: _502  and  _503
REMARK  204  A    between atoms: _502  and  _505
REMARK  205  A    between atoms: _505  and  _506
REMARK  206  A    between atoms: _511  and  _513
REMARK  207  A    between atoms: _513  and  _514
REMARK  208  A    between atoms: _513  and  _516
REMARK  209  A    between atoms: _516  and  _517
REMARK  210  A    between atoms: _520  and  _522
REMARK  211  A    between atoms: _522  and  _523
REMARK  212  A    between atoms: _522  and  _525
REMARK  213  A    between atoms: _525  and  _526
REMARK  214  A    between atoms: _526  and  _527
REMARK  215  A    between atoms: _527  and  _528
REMARK  216  A    between atoms: _537  and  _539
REMARK  217  A    between atoms: _539  and  _540
REMARK  218  A    between atoms: _539  and  _542
REMARK  219  A    between atoms: _542  and  _543
REMARK  220  A    between atoms: _546  and  _548
REMARK  221  A    between atoms: _548  and  _549
REMARK  222  A    between atoms: _551  and  _553
REMARK  223  A    between atoms: _553  and  _554
REMARK  224  A    between atoms: _553  and  _556
REMARK  225  A    between atoms: _556  and  _557
REMARK  226  A    between atoms: _557  and  _558
REMARK  227  A    between atoms: _561  and  _563
REMARK  228  A    between atoms: _563  and  _564
REMARK  229  A    between atoms: _563  and  _566
REMARK  230  A    between atoms: _566  and  _567
REMARK  231  A    between atoms: _567  and  _568
REMARK  232  A    between atoms: _568  and  _569
REMARK  233  A    between atoms: _578  and  _580
REMARK  234  A    between atoms: _580  and  _581
REMARK  235  A    between atoms: _580  and  _583
REMARK  236  A    between atoms: _583  and  _584
REMARK  237  A    between atoms: _584  and  _585
REMARK  238  A    between atoms: _585  and  _586
REMARK  239  A    between atoms: _586  and  _587
REMARK  240  A    between atoms: _591  and  _593
REMARK  241  A    between atoms: _593  and  _594
REMARK  242  A    between atoms: _593  and  _596
REMARK  243  A    between atoms: _596  and  _597
REMARK  244  A    between atoms: _603  and  _605
REMARK  245  A    between atoms: _605  and  _606
REMARK  246  A    between atoms: _609  and  _611
REMARK  247  A    between atoms: _611  and  _612
REMARK  248  A    between atoms: _611  and  _614
REMARK  249  A    between atoms: _614  and  _615
REMARK  250  A    between atoms: _618  and  _620
REMARK  251  A    between atoms: _620  and  _621
REMARK  252  A    between atoms: _620  and  _623
REMARK  253  A    between atoms: _623  and  _624
REMARK  254  A    between atoms: _626  and  _628
REMARK  255  A    between atoms: _628  and  _629
REMARK  256  A    between atoms: _628  and  _631
REMARK  257  A    between atoms: _631  and  _632
REMARK  258  A    between atoms: _632  and  _633
REMARK  259  A    between atoms: _638  and  _640
REMARK  260  A    between atoms: _640  and  _641
REMARK  261  A    between atoms: _640  and  _643
REMARK  262  A    between atoms: _643  and  _644
REMARK  263  A    between atoms: _646  and  _648
REMARK  264  A    between atoms: _648  and  _649
REMARK  265  A    between atoms: _648  and  _651
REMARK  266  A    between atoms: _651  and  _652
REMARK  267  A    between atoms: _654  and  _656
REMARK  268  A    between atoms: _656  and  _657
REMARK  269  A    between atoms: _656  and  _659
REMARK  270  A    between atoms: _659  and  _660
REMARK  271  A    between atoms: _663  and  _665
REMARK  272  A    between atoms: _665  and  _666
REMARK  273  A    between atoms: _668  and  _670
REMARK  274  A    between atoms: _670  and  _671
REMARK  275  A    between atoms: _670  and  _673
REMARK  276  A    between atoms: _673  and  _674
REMARK  277  A    between atoms: _677  and  _679
REMARK  278  A    between atoms: _679  and  _680
REMARK  279  A    between atoms: _679  and  _682
REMARK  280  A    between atoms: _685  and  _687
REMARK  281  A    between atoms: _687  and  _688
REMARK  282  A    between atoms: _690  and  _692
REMARK  283  A    between atoms: _692  and  _693
REMARK  284  A    between atoms: _696  and  _698
REMARK  285  A    between atoms: _698  and  _699
REMARK  286  A    between atoms: _698  and  _701
REMARK                            x       y       z     vdW  Elec       q    Type
REMARK                         _______ _______ _______ _____ _____    ______ ____
ROOT
ATOM      1  O   HOH     1      12.432   0.366  -3.877  0.00  0.00    +0.000 OA
ENDROOT
TORSDOF 0
REMARK  Name = ../refined-set-2016/1fkn/1fkn_pocket.pdb
REMARK  286 active torsions:
REMARK  status: ('A' for Active; 'I' for Inactive)
REMARK    1  A    between atoms: _1  and  _3
REMARK    2  A    between atoms: _3  and  _4
REMARK    3  A    between atoms: _3  and  _6
REMARK    4  A    between atoms: _6  and  _7
REMARK    5  A    between atoms: _7  and  _8
REMARK    6  A    between atoms: _8  and  _9
REMARK    7  A    between atoms: _9  and  _10
REMARK    8  A    between atoms: _14  and  _16
REMARK    9  A    between atoms: _16  and  _17
REMARK   10  A    between atoms: _16  and  _19
REMARK   11  A    between atoms: _19  and  _20
REMARK   12  A    between atoms: _22  and  _24
REMARK   13  A    between atoms: _24  and  _25
REMARK   14  A    between atoms: _27  and  _29
REMARK   15  A    between atoms: _29  and  _30
REMARK   16  A    between atoms: _29  and  _32
REMARK   17  A    between atoms: _32  and  _33
REMARK   18  A    between atoms: _33  and  _34
REMARK   19  A    between atoms: _39  and  _41
REMARK   20  A    between atoms: _41  and  _42
REMARK   21  A    between atoms: _44  and  _46
REMARK   22  A    between atoms: _46  and  _47
REMARK   23  A    between atoms: _46  and  _49
REMARK   24  A    between atoms: _49  and  _50
REMARK   25  A    between atoms: _55  and  _56
REMARK   26  A    between atoms: _58  and  _60
REMARK   27  A    between atoms: _60  and  _61
REMARK   28  A    between atoms: _60  and  _63
REMARK   29  A    between atoms: _63  and  _64
REMARK   30  A    between atoms: _67  and  _69
REMARK   31  A    between atoms: _69  and  _70
REMARK   32  A    between atoms: _69  and  _72
REMARK   33  A    between atoms: _75  and  _77
REMARK   34  A    between atoms: _77  and  _78
REMARK   35  A    between atoms: _77  and  _80
REMARK   36  A    between atoms: _80  and  _81
REMARK   37  A    between atoms: _84  and  _86
REMARK   38  A    between atoms: _86  and  _87
REMARK   39  A    between atoms: _86  and  _89
REMARK   40  A    between atoms: _89  and  _90
REMARK   41  A    between atoms: _93  and  _95
REMARK   42  A    between atoms: _95  and  _96
REMARK   43  A    between atoms: _98  and  _100
REMARK   44  A    between atoms: _100  and  _101
REMARK   45  A    between atoms: _100  and  _103
REMARK   46  A    between atoms: _103  and  _104
REMARK   47  A    between atoms: _106  and  _108
REMARK   48  A    between atoms: _108  and  _109
REMARK   49  A    between atoms: _108  and  _111
REMARK   50  A    between atoms: _111  and  _112
REMARK   51  A    between atoms: _114  and  _116
REMARK   52  A    between atoms: _116  and  _117
REMARK   53  A    between atoms: _116  and  _119
REMARK   54  A    between atoms: _119  and  _120
REMARK   55  A    between atoms: _125  and  _127
REMARK   56  A    between atoms: _127  and  _128
REMARK   57  A    between atoms: _127  and  _130
REMARK   58  A    between atoms: _130  and  _131
REMARK   59  A    between atoms: _136  and  _137
REMARK   60  A    between atoms: _139  and  _141
REMARK   61  A    between atoms: _141  and  _142
REMARK   62  A    between atoms: _141  and  _144
REMARK   63  A    between atoms: _148  and  _149
REMARK   64  A    between atoms: _154  and  _156
REMARK   65  A    between atoms: _156  and  _157
REMARK   66  A    between atoms: _156  and  _159
REMARK   67  A    between atoms: _159  and  _160
REMARK   68  A    between atoms: _165  and  _166
REMARK   69  A    between atoms: _168  and  _170
REMARK   70  A    between atoms: _170  and  _171
REMARK   71  A    between atoms: _170  and  _173
REMARK   72  A    between atoms: _173  and  _174
REMARK   73  A    between atoms: _177  and  _179
REMARK   74  A    between atoms: _179  and  _180
REMARK   75  A    between atoms: _179  and  _182
REMARK   76  A    between atoms: _182  and  _183
REMARK   77  A    between atoms: _183  and  _184
REMARK   78  A    between atoms: _189  and  _191
REMARK   79  A    between atoms: _191  and  _192
REMARK   80  A    between atoms: _194  and  _196
REMARK   81  A    between atoms: _196  and  _197
REMARK   82  A    between atoms: _196  and  _199
REMARK   83  A    between atoms: _199  and  _200
REMARK   84  A    between atoms: _200  and  _201
REMARK   85  A    between atoms: _201  and  _202
REMARK   86  A    between atoms: _202  and  _203
REMARK   87  A    between atoms: _207  and  _209
REMARK   88  A    between atoms: _209  and  _210
REMARK   89  A    between atoms: _209  and  _212
REMARK   90  A    between atoms: _212  and  _213
REMARK   91  A    between atoms: _223  and  _225
REMARK   92  A    between atoms: _225  and  _226
REMARK   93  A    between atoms: _225  and  _228
REMARK   94  A    between atoms: _228  and  _229
REMARK   95  A    between atoms: _232  and  _234
REMARK   96  A    between atoms: _234  and  _235
REMARK   97  A    between atoms: _234  and  _237
REMARK   98  A    between atoms: _237  and  _238
REMARK   99  A    between atoms: _238  and  _239
REMARK  100  A    between atoms: _239  and  _240
REMARK  101  A    between atoms: _240  and  _241
REMARK  102  A    between atoms: _245  and  _247
REMARK  103  A    between atoms: _247  and  _248
REMARK  104  A    between atoms: _247  and  _250
REMARK  105  A    between atoms: _250  and  _251
REMARK  106  A    between atoms: _257  and  _259
REMARK  107  A    between atoms: _259  and  _260
REMARK  108  A    between atoms: _259  and  _262
REMARK  109  A    between atoms: _262  and  _263
REMARK  110  A    between atoms: _269  and  _271
REMARK  111  A    between atoms: _271  and  _272
REMARK  112  A    between atoms: _271  and  _274
REMARK  113  A    between atoms: _274  and  _275
REMARK  114  A    between atoms: _278  and  _280
REMARK  115  A    between atoms: _280  and  _281
REMARK  116  A    between atoms: _280  and  _283
REMARK  117  A    between atoms: _283  and  _284
REMARK  118  A    between atoms: _286  and  _288
REMARK  119  A    between atoms: _288  and  _289
REMARK  120  A    between atoms: _288  and  _291
REMARK  121  A    between atoms: _291  and  _292
REMARK  122  A    between atoms: _302  and  _304
REMARK  123  A    between atoms: _304  and  _305
REMARK  124  A    between atoms: _307  and  _309
REMARK  125  A    between atoms: _309  and  _310
REMARK  126  A    between atoms: _309  and  _312
REMARK  127  A    between atoms: _312  and  _313
REMARK  128  A    between atoms: _316  and  _318
REMARK  129  A    between atoms: _318  and  _319
REMARK  130  A    between atoms: _318  and  _321
REMARK  131  A    between atoms: _321  and  _322
REMARK  132  A    between atoms: _325  and  _327
REMARK  133  A    between atoms: _327  and  _328
REMARK  134  A    between atoms: _330  and  _332
REMARK  135  A    between atoms: _332  and  _333
REMARK  136  A    between atoms: _332  and  _335
REMARK  137  A    between atoms: _335  and  _336
REMARK  138  A    between atoms: _339  and  _341
REMARK  139  A    between atoms: _341  and  _342
REMARK  140  A    between atoms: _345  and  _347
REMARK  141  A    between atoms: _347  and  _348
REMARK  142  A    between atoms: _347  and  _350
REMARK  143  A    between atoms: _350  and  _351
REMARK  144  A    between atoms: _356  and  _357
REMARK  145  A    between atoms: _359  and  _361
REMARK  146  A    between atoms: _361  and  _362
REMARK  147  A    between atoms: _361  and  _364
REMARK  148  A    between atoms: _364  and  _365
REMARK  149  A    between atoms: _368  and  _370
REMARK  150  A    between atoms: _370  and  _371
REMARK  151  A    between atoms: _374  and  _376
REMARK  152  A    between atoms: _376  and  _377
REMARK  153  A    between atoms: _376  and  _379
REMARK  154  A    between atoms: _379  and  _380
REMARK  155  A    between atoms: _380  and  _381
REMARK  156  A    between atoms: _381  and  _382
REMARK  157  A    between atoms: _391  and  _393
REMARK  158  A    between atoms: _393  and  _394
REMARK  159  A    between atoms: _393  and  _396
REMARK  160  A    between atoms: _396  and  _397
REMARK  161  A    between atoms: _407  and  _409
REMARK  162  A    between atoms: _409  and  _410
REMARK  163  A    between atoms: _409  and  _412
REMARK  164  A    between atoms: _412  and  _413
REMARK  165  A    between atoms: _418  and  _419
REMARK  166  A    between atoms: _421  and  _423
REMARK  167  A    between atoms: _423  and  _424
REMARK  168  A    between atoms: _423  and  _426
REMARK  169  A    between atoms: _426  and  _427
REMARK  170  A    between atoms: _430  and  _432
REMARK  171  A    between atoms: _432  and  _433
REMARK  172  A    between atoms: _432  and  _435
REMARK  173  A    between atoms: _435  and  _436
REMARK  174  A    between atoms: _436  and  _437
REMARK  175  A    between atoms: _437  and  _438
REMARK  176  A    between atoms: _438  and  _439
REMARK  177  A    between atoms: _443  and  _445
REMARK  178  A    between atoms: _445  and  _446
REMARK  179  A    between atoms: _445  and  _448
REMARK  180  A    between atoms: _448  and  _449
REMARK  181  A    between atoms: _452  and  _454
REMARK  182  A    between atoms: _454  and  _455
REMARK  183  A    between atoms: _454  and  _457
REMARK  184  A    between atoms: _460  and  _462
REMARK  185  A    between atoms: _462  and  _463
REMARK  186  A    between atoms: _462  and  _465
REMARK  187  A    between atoms: _465  and  _466
REMARK  188  A    between atoms: _469  and  _471
REMARK  189  A    between atoms: _471  and  _472
REMARK  190  A    between atoms: _471  and  _474
REMARK  191  A    between atoms: _474  and  _475
REMARK  192  A    between atoms: _477  and  _479
REMARK  193  A    between atoms: _479  and  _480
REMARK  194  A    between atoms: _482  and  _484
REMARK  195  A    between atoms: _484  and  _485
REMARK  196  A    between atoms: _484  and  _487
REMARK  197  A    between atoms: _487  and  _488
REMARK  198  A    between atoms: _491  and  _493
REMARK  199  A    between atoms: _493  and  _494
REMARK  200  A    between atoms: _493  and  _496
REMARK  201  A    between atoms: _496  and  _497
REMARK  202  A    between atoms: _500  and  _502
REMARK  203  A    between atoms: _502  and  _503
REMARK  204  A    between atoms: _502  and  _505
REMARK  205  A    between atoms: _505  and  _506
REMARK  206  A    between atoms: _511  and  _513
REMARK  207  A    between atoms: _513  and  _514
REMARK  208  A    between atoms: _513  and  _516
REMARK  209  A    between atoms: _516  and  _517
REMARK  210  A    between atoms: _520  and  _522
REMARK  211  A    between atoms: _522  and  _523
REMARK  212  A    between atoms: _522  and  _525
REMARK  213  A    between atoms: _525  and  _526
REMARK  214  A    between atoms: _526  and  _527
REMARK  215  A    between atoms: _527  and  _528
REMARK  216  A    between atoms: _537  and  _539
REMARK  217  A    between atoms: _539  and  _540
REMARK  218  A    between atoms: _539  and  _542
REMARK  219  A    between atoms: _542  and  _543
REMARK  220  A    between atoms: _546  and  _548
REMARK  221  A    between atoms: _548  and  _549
REMARK  222  A    between atoms: _551  and  _553
REMARK  223  A    between atoms: _553  and  _554
REMARK  224  A    between atoms: _553  and  _556
REMARK  225  A    between atoms: _556  and  _557
REMARK  226  A    between atoms: _557  and  _558
REMARK  227  A    between atoms: _561  and  _563
REMARK  228  A    between atoms: _563  and  _564
REMARK  229  A    between atoms: _563  and  _566
REMARK  230  A    between atoms: _566  and  _567
REMARK  231  A    between atoms: _567  and  _568
REMARK  232  A    between atoms: _568  and  _569
REMARK  233  A    between atoms: _578  and  _580
REMARK  234  A    between atoms: _580  and  _581
REMARK  235  A    between atoms: _580  and  _583
REMARK  236  A    between atoms: _583  and  _584
REMARK  237  A    between atoms: _584  and  _585
REMARK  238  A    between atoms: _585  and  _586
REMARK  239  A    between atoms: _586  and  _587
REMARK  240  A    between atoms: _591  and  _593
REMARK  241  A    between atoms: _593  and  _594
REMARK  242  A    between atoms: _593  and  _596
REMARK  243  A    between atoms: _596  and  _597
REMARK  244  A    between atoms: _603  and  _605
REMARK  245  A    between atoms: _605  and  _606
REMARK  246  A    between atoms: _609  and  _611
REMARK  247  A    between atoms: _611  and  _612
REMARK  248  A    between atoms: _611  and  _614
REMARK  249  A    between atoms: _614  and  _615
REMARK  250  A    between atoms: _618  and  _620
REMARK  251  A    between atoms: _620  and  _621
REMARK  252  A    between atoms: _620  and  _623
REMARK  253  A    between atoms: _623  and  _624
REMARK  254  A    between atoms: _626  and  _628
REMARK  255  A    between atoms: _628  and  _629
REMARK  256  A    between atoms: _628  and  _631
REMARK  257  A    between atoms: _631  and  _632
REMARK  258  A    between atoms: _632  and  _633
REMARK  259  A    between atoms: _638  and  _640
REMARK  260  A    between atoms: _640  and  _641
REMARK  261  A    between atoms: _640  and  _643
REMARK  262  A    between atoms: _643  and  _644
REMARK  263  A    between atoms: _646  and  _648
REMARK  264  A    between atoms: _648  and  _649
REMARK  265  A    between atoms: _648  and  _651
REMARK  266  A    between atoms: _651  and  _652
REMARK  267  A    between atoms: _654  and  _656
REMARK  268  A    between atoms: _656  and  _657
REMARK  269  A    between atoms: _656  and  _659
REMARK  270  A    between atoms: _659  and  _660
REMARK  271  A    between atoms: _663  and  _665
REMARK  272  A    between atoms: _665  and  _666
REMARK  273  A    between atoms: _668  and  _670
REMARK  274  A    between atoms: _670  and  _671
REMARK  275  A    between atoms: _670  and  _673
REMARK  276  A    between atoms: _673  and  _674
REMARK  277  A    between atoms: _677  and  _679
REMARK  278  A    between atoms: _679  and  _680
REMARK  279  A    between atoms: _679  and  _682
REMARK  280  A    between atoms: _685  and  _687
REMARK  281  A    between atoms: _687  and  _688
REMARK  282  A    between atoms: _690  and  _692
REMARK  283  A    between atoms: _692  and  _693
REMARK  284  A    between atoms: _696  and  _698
REMARK  285  A    between atoms: _698  and  _699
REMARK  286  A    between atoms: _698  and  _701
REMARK                            x       y       z     vdW  Elec       q    Type
REMARK                         _______ _______ _______ _____ _____    ______ ____
ROOT
ATOM      1  O   HOH     1       9.538   2.176  -4.175  0.00  0.00    +0.000 OA
ENDROOT
TORSDOF 0
REMARK  Name = ../refined-set-2016/1fkn/1fkn_pocket.pdb
REMARK  286 active torsions:
REMARK  status: ('A' for Active; 'I' for Inactive)
REMARK    1  A    between atoms: _1  and  _3
REMARK    2  A    between atoms: _3  and  _4
REMARK    3  A    between atoms: _3  and  _6
REMARK    4  A    between atoms: _6  and  _7
REMARK    5  A    between atoms: _7  and  _8
REMARK    6  A    between atoms: _8  and  _9
REMARK    7  A    between atoms: _9  and  _10
REMARK    8  A    between atoms: _14  and  _16
REMARK    9  A    between atoms: _16  and  _17
REMARK   10  A    between atoms: _16  and  _19
REMARK   11  A    between atoms: _19  and  _20
REMARK   12  A    between atoms: _22  and  _24
REMARK   13  A    between atoms: _24  and  _25
REMARK   14  A    between atoms: _27  and  _29
REMARK   15  A    between atoms: _29  and  _30
REMARK   16  A    between atoms: _29  and  _32
REMARK   17  A    between atoms: _32  and  _33
REMARK   18  A    between atoms: _33  and  _34
REMARK   19  A    between atoms: _39  and  _41
REMARK   20  A    between atoms: _41  and  _42
REMARK   21  A    between atoms: _44  and  _46
REMARK   22  A    between atoms: _46  and  _47
REMARK   23  A    between atoms: _46  and  _49
REMARK   24  A    between atoms: _49  and  _50
REMARK   25  A    between atoms: _55  and  _56
REMARK   26  A    between atoms: _58  and  _60
REMARK   27  A    between atoms: _60  and  _61
REMARK   28  A    between atoms: _60  and  _63
REMARK   29  A    between atoms: _63  and  _64
REMARK   30  A    between atoms: _67  and  _69
REMARK   31  A    between atoms: _69  and  _70
REMARK   32  A    between atoms: _69  and  _72
REMARK   33  A    between atoms: _75  and  _77
REMARK   34  A    between atoms: _77  and  _78
REMARK   35  A    between atoms: _77  and  _80
REMARK   36  A    between atoms: _80  and  _81
REMARK   37  A    between atoms: _84  and  _86
REMARK   38  A    between atoms: _86  and  _87
REMARK   39  A    between atoms: _86  and  _89
REMARK   40  A    between atoms: _89  and  _90
REMARK   41  A    between atoms: _93  and  _95
REMARK   42  A    between atoms: _95  and  _96
REMARK   43  A    between atoms: _98  and  _100
REMARK   44  A    between atoms: _100  and  _101
REMARK   45  A    between atoms: _100  and  _103
REMARK   46  A    between atoms: _103  and  _104
REMARK   47  A    between atoms: _106  and  _108
REMARK   48  A    between atoms: _108  and  _109
REMARK   49  A    between atoms: _108  and  _111
REMARK   50  A    between atoms: _111  and  _112
REMARK   51  A    between atoms: _114  and  _116
REMARK   52  A    between atoms: _116  and  _117
REMARK   53  A    between atoms: _116  and  _119
REMARK   54  A    between atoms: _119  and  _120
REMARK   55  A    between atoms: _125  and  _127
REMARK   56  A    between atoms: _127  and  _128
REMARK   57  A    between atoms: _127  and  _130
REMARK   58  A    between atoms: _130  and  _131
REMARK   59  A    between atoms: _136  and  _137
REMARK   60  A    between atoms: _139  and  _141
REMARK   61  A    between atoms: _141  and  _142
REMARK   62  A    between atoms: _141  and  _144
REMARK   63  A    between atoms: _148  and  _149
REMARK   64  A    between atoms: _154  and  _156
REMARK   65  A    between atoms: _156  and  _157
REMARK   66  A    between atoms: _156  and  _159
REMARK   67  A    between atoms: _159  and  _160
REMARK   68  A    between atoms: _165  and  _166
REMARK   69  A    between atoms: _168  and  _170
REMARK   70  A    between atoms: _170  and  _171
REMARK   71  A    between atoms: _170  and  _173
REMARK   72  A    between atoms: _173  and  _174
REMARK   73  A    between atoms: _177  and  _179
REMARK   74  A    between atoms: _179  and  _180
REMARK   75  A    between atoms: _179  and  _182
REMARK   76  A    between atoms: _182  and  _183
REMARK   77  A    between atoms: _183  and  _184
REMARK   78  A    between atoms: _189  and  _191
REMARK   79  A    between atoms: _191  and  _192
REMARK   80  A    between atoms: _194  and  _196
REMARK   81  A    between atoms: _196  and  _197
REMARK   82  A    between atoms: _196  and  _199
REMARK   83  A    between atoms: _199  and  _200
REMARK   84  A    between atoms: _200  and  _201
REMARK   85  A    between atoms: _201  and  _202
REMARK   86  A    between atoms: _202  and  _203
REMARK   87  A    between atoms: _207  and  _209
REMARK   88  A    between atoms: _209  and  _210
REMARK   89  A    between atoms: _209  and  _212
REMARK   90  A    between atoms: _212  and  _213
REMARK   91  A    between atoms: _223  and  _225
REMARK   92  A    between atoms: _225  and  _226
REMARK   93  A    between atoms: _225  and  _228
REMARK   94  A    between atoms: _228  and  _229
REMARK   95  A    between atoms: _232  and  _234
REMARK   96  A    between atoms: _234  and  _235
REMARK   97  A    between atoms: _234  and  _237
REMARK   98  A    between atoms: _237  and  _238
REMARK   99  A    between atoms: _238  and  _239
REMARK  100  A    between atoms: _239  and  _240
REMARK  101  A    between atoms: _240  and  _241
REMARK  102  A    between atoms: _245  and  _247
REMARK  103  A    between atoms: _247  and  _248
REMARK  104  A    between atoms: _247  and  _250
REMARK  105  A    between atoms: _250  and  _251
REMARK  106  A    between atoms: _257  and  _259
REMARK  107  A    between atoms: _259  and  _260
REMARK  108  A    between atoms: _259  and  _262
REMARK  109  A    between atoms: _262  and  _263
REMARK  110  A    between atoms: _269  and  _271
REMARK  111  A    between atoms: _271  and  _272
REMARK  112  A    between atoms: _271  and  _274
REMARK  113  A    between atoms: _274  and  _275
REMARK  114  A    between atoms: _278  and  _280
REMARK  115  A    between atoms: _280  and  _281
REMARK  116  A    between atoms: _280  and  _283
REMARK  117  A    between atoms: _283  and  _284
REMARK  118  A    between atoms: _286  and  _288
REMARK  119  A    between atoms: _288  and  _289
REMARK  120  A    between atoms: _288  and  _291
REMARK  121  A    between atoms: _291  and  _292
REMARK  122  A    between atoms: _302  and  _304
REMARK  123  A    between atoms: _304  and  _305
REMARK  124  A    between atoms: _307  and  _309
REMARK  125  A    between atoms: _309  and  _310
REMARK  126  A    between atoms: _309  and  _312
REMARK  127  A    between atoms: _312  and  _313
REMARK  128  A    between atoms: _316  and  _318
REMARK  129  A    between atoms: _318  and  _319
REMARK  130  A    between atoms: _318  and  _321
REMARK  131  A    between atoms: _321  and  _322
REMARK  132  A    between atoms: _325  and  _327
REMARK  133  A    between atoms: _327  and  _328
REMARK  134  A    between atoms: _330  and  _332
REMARK  135  A    between atoms: _332  and  _333
REMARK  136  A    between atoms: _332  and  _335
REMARK  137  A    between atoms: _335  and  _336
REMARK  138  A    between atoms: _339  and  _341
REMARK  139  A    between atoms: _341  and  _342
REMARK  140  A    between atoms: _345  and  _347
REMARK  141  A    between atoms: _347  and  _348
REMARK  142  A    between atoms: _347  and  _350
REMARK  143  A    between atoms: _350  and  _351
REMARK  144  A    between atoms: _356  and  _357
REMARK  145  A    between atoms: _359  and  _361
REMARK  146  A    between atoms: _361  and  _362
REMARK  147  A    between atoms: _361  and  _364
REMARK  148  A    between atoms: _364  and  _365
REMARK  149  A    between atoms: _368  and  _370
REMARK  150  A    between atoms: _370  and  _371
REMARK  151  A    between atoms: _374  and  _376
REMARK  152  A    between atoms: _376  and  _377
REMARK  153  A    between atoms: _376  and  _379
REMARK  154  A    between atoms: _379  and  _380
REMARK  155  A    between atoms: _380  and  _381
REMARK  156  A    between atoms: _381  and  _382
REMARK  157  A    between atoms: _391  and  _393
REMARK  158  A    between atoms: _393  and  _394
REMARK  159  A    between atoms: _393  and  _396
REMARK  160  A    between atoms: _396  and  _397
REMARK  161  A    between atoms: _407  and  _409
REMARK  162  A    between atoms: _409  and  _410
REMARK  163  A    between atoms: _409  and  _412
REMARK  164  A    between atoms: _412  and  _413
REMARK  165  A    between atoms: _418  and  _419
REMARK  166  A    between atoms: _421  and  _423
REMARK  167  A    between atoms: _423  and  _424
REMARK  168  A    between atoms: _423  and  _426
REMARK  169  A    between atoms: _426  and  _427
REMARK  170  A    between atoms: _430  and  _432
REMARK  171  A    between atoms: _432  and  _433
REMARK  172  A    between atoms: _432  and  _435
REMARK  173  A    between atoms: _435  and  _436
REMARK  174  A    between atoms: _436  and  _437
REMARK  175  A    between atoms: _437  and  _438
REMARK  176  A    between atoms: _438  and  _439
REMARK  177  A    between atoms: _443  and  _445
REMARK  178  A    between atoms: _445  and  _446
REMARK  179  A    between atoms: _445  and  _448
REMARK  180  A    between atoms: _448  and  _449
REMARK  181  A    between atoms: _452  and  _454
REMARK  182  A    between atoms: _454  and  _455
REMARK  183  A    between atoms: _454  and  _457
REMARK  184  A    between atoms: _460  and  _462
REMARK  185  A    between atoms: _462  and  _463
REMARK  186  A    between atoms: _462  and  _465
REMARK  187  A    between atoms: _465  and  _466
REMARK  188  A    between atoms: _469  and  _471
REMARK  189  A    between atoms: _471  and  _472
REMARK  190  A    between atoms: _471  and  _474
REMARK  191  A    between atoms: _474  and  _475
REMARK  192  A    between atoms: _477  and  _479
REMARK  193  A    between atoms: _479  and  _480
REMARK  194  A    between atoms: _482  and  _484
REMARK  195  A    between atoms: _484  and  _485
REMARK  196  A    between atoms: _484  and  _487
REMARK  197  A    between atoms: _487  and  _488
REMARK  198  A    between atoms: _491  and  _493
REMARK  199  A    between atoms: _493  and  _494
REMARK  200  A    between atoms: _493  and  _496
REMARK  201  A    between atoms: _496  and  _497
REMARK  202  A    between atoms: _500  and  _502
REMARK  203  A    between atoms: _502  and  _503
REMARK  204  A    between atoms: _502  and  _505
REMARK  205  A    between atoms: _505  and  _506
REMARK  206  A    between atoms: _511  and  _513
REMARK  207  A    between atoms: _513  and  _514
REMARK  208  A    between atoms: _513  and  _516
REMARK  209  A    between atoms: _516  and  _517
REMARK  210  A    between atoms: _520  and  _522
REMARK  211  A    between atoms: _522  and  _523
REMARK  212  A    between atoms: _522  and  _525
REMARK  213  A    between atoms: _525  and  _526
REMARK  214  A    between atoms: _526  and  _527
REMARK  215  A    between atoms: _527  and  _528
REMARK  216  A    between atoms: _537  and  _539
REMARK  217  A    between atoms: _539  and  _540
REMARK  218  A    between atoms: _539  and  _542
REMARK  219  A    between atoms: _542  and  _543
REMARK  220  A    between atoms: _546  and  _548
REMARK  221  A    between atoms: _548  and  _549
REMARK  222  A    between atoms: _551  and  _553
REMARK  223  A    between atoms: _553  and  _554
REMARK  224  A    between atoms: _553  and  _556
REMARK  225  A    between atoms: _556  and  _557
REMARK  226  A    between atoms: _557  and  _558
REMARK  227  A    between atoms: _561  and  _563
REMARK  228  A    between atoms: _563  and  _564
REMARK  229  A    between atoms: _563  and  _566
REMARK  230  A    between atoms: _566  and  _567
REMARK  231  A    between atoms: _567  and  _568
REMARK  232  A    between atoms: _568  and  _569
REMARK  233  A    between atoms: _578  and  _580
REMARK  234  A    between atoms: _580  and  _581
REMARK  235  A    between atoms: _580  and  _583
REMARK  236  A    between atoms: _583  and  _584
REMARK  237  A    between atoms: _584  and  _585
REMARK  238  A    between atoms: _585  and  _586
REMARK  239  A    between atoms: _586  and  _587
REMARK  240  A    between atoms: _591  and  _593
REMARK  241  A    between atoms: _593  and  _594
REMARK  242  A    between atoms: _593  and  _596
REMARK  243  A    between atoms: _596  and  _597
REMARK  244  A    between atoms: _603  and  _605
REMARK  245  A    between atoms: _605  and  _606
REMARK  246  A    between atoms: _609  and  _611
REMARK  247  A    between atoms: _611  and  _612
REMARK  248  A    between atoms: _611  and  _614
REMARK  249  A    between atoms: _614  and  _615
REMARK  250  A    between atoms: _618  and  _620
REMARK  251  A    between atoms: _620  and  _621
REMARK  252  A    between atoms: _620  and  _623
REMARK  253  A    between atoms: _623  and  _624
REMARK  254  A    between atoms: _626  and  _628
REMARK  255  A    between atoms: _628  and  _629
REMARK  256  A    between atoms: _628  and  _631
REMARK  257  A    between atoms: _631  and  _632
REMARK  258  A    between atoms: _632  and  _633
REMARK  259  A    between atoms: _638  and  _640
REMARK  260  A    between atoms: _640  and  _641
REMARK  261  A    between atoms: _640  and  _643
REMARK  262  A    between atoms: _643  and  _644
REMARK  263  A    between atoms: _646  and  _648
REMARK  264  A    between atoms: _648  and  _649
REMARK  265  A    between atoms: _648  and  _651
REMARK  266  A    between atoms: _651  and  _652
REMARK  267  A    between atoms: _654  and  _656
REMARK  268  A    between atoms: _656  and  _657
REMARK  269  A    between atoms: _656  and  _659
REMARK  270  A    between atoms: _659  and  _660
REMARK  271  A    between atoms: _663  and  _665
REMARK  272  A    between atoms: _665  and  _666
REMARK  273  A    between atoms: _668  and  _670
REMARK  274  A    between atoms: _670  and  _671
REMARK  275  A    between atoms: _670  and  _673
REMARK  276  A    between atoms: _673  and  _674
REMARK  277  A    between atoms: _677  and  _679
REMARK  278  A    between atoms: _679  and  _680
REMARK  279  A    between atoms: _679  and  _682
REMARK  280  A    between atoms: _685  and  _687
REMARK  281  A    between atoms: _687  and  _688
REMARK  282  A    between atoms: _690  and  _692
REMARK  283  A    between atoms: _692  and  _693
REMARK  284  A    between atoms: _696  and  _698
REMARK  285  A    between atoms: _698  and  _699
REMARK  286  A    between atoms: _698  and  _701
REMARK                            x       y       z     vdW  Elec       q    Type
REMARK                         _______ _______ _______ _____ _____    ______ ____
ROOT
ATOM      1  O   HOH     1       4.176   3.833  -0.576  0.00  0.00    +0.000 OA
ENDROOT
TORSDOF 0
REMARK  Name = ../refined-set-2016/1fkn/1fkn_pocket.pdb
REMARK  286 active torsions:
REMARK  status: ('A' for Active; 'I' for Inactive)
REMARK    1  A    between atoms: _1  and  _3
REMARK    2  A    between atoms: _3  and  _4
REMARK    3  A    between atoms: _3  and  _6
REMARK    4  A    between atoms: _6  and  _7
REMARK    5  A    between atoms: _7  and  _8
REMARK    6  A    between atoms: _8  and  _9
REMARK    7  A    between atoms: _9  and  _10
REMARK    8  A    between atoms: _14  and  _16
REMARK    9  A    between atoms: _16  and  _17
REMARK   10  A    between atoms: _16  and  _19
REMARK   11  A    between atoms: _19  and  _20
REMARK   12  A    between atoms: _22  and  _24
REMARK   13  A    between atoms: _24  and  _25
REMARK   14  A    between atoms: _27  and  _29
REMARK   15  A    between atoms: _29  and  _30
REMARK   16  A    between atoms: _29  and  _32
REMARK   17  A    between atoms: _32  and  _33
REMARK   18  A    between atoms: _33  and  _34
REMARK   19  A    between atoms: _39  and  _41
REMARK   20  A    between atoms: _41  and  _42
REMARK   21  A    between atoms: _44  and  _46
REMARK   22  A    between atoms: _46  and  _47
REMARK   23  A    between atoms: _46  and  _49
REMARK   24  A    between atoms: _49  and  _50
REMARK   25  A    between atoms: _55  and  _56
REMARK   26  A    between atoms: _58  and  _60
REMARK   27  A    between atoms: _60  and  _61
REMARK   28  A    between atoms: _60  and  _63
REMARK   29  A    between atoms: _63  and  _64
REMARK   30  A    between atoms: _67  and  _69
REMARK   31  A    between atoms: _69  and  _70
REMARK   32  A    between atoms: _69  and  _72
REMARK   33  A    between atoms: _75  and  _77
REMARK   34  A    between atoms: _77  and  _78
REMARK   35  A    between atoms: _77  and  _80
REMARK   36  A    between atoms: _80  and  _81
REMARK   37  A    between atoms: _84  and  _86
REMARK   38  A    between atoms: _86  and  _87
REMARK   39  A    between atoms: _86  and  _89
REMARK   40  A    between atoms: _89  and  _90
REMARK   41  A    between atoms: _93  and  _95
REMARK   42  A    between atoms: _95  and  _96
REMARK   43  A    between atoms: _98  and  _100
REMARK   44  A    between atoms: _100  and  _101
REMARK   45  A    between atoms: _100  and  _103
REMARK   46  A    between atoms: _103  and  _104
REMARK   47  A    between atoms: _106  and  _108
REMARK   48  A    between atoms: _108  and  _109
REMARK   49  A    between atoms: _108  and  _111
REMARK   50  A    between atoms: _111  and  _112
REMARK   51  A    between atoms: _114  and  _116
REMARK   52  A    between atoms: _116  and  _117
REMARK   53  A    between atoms: _116  and  _119
REMARK   54  A    between atoms: _119  and  _120
REMARK   55  A    between atoms: _125  and  _127
REMARK   56  A    between atoms: _127  and  _128
REMARK   57  A    between atoms: _127  and  _130
REMARK   58  A    between atoms: _130  and  _131
REMARK   59  A    between atoms: _136  and  _137
REMARK   60  A    between atoms: _139  and  _141
REMARK   61  A    between atoms: _141  and  _142
REMARK   62  A    between atoms: _141  and  _144
REMARK   63  A    between atoms: _148  and  _149
REMARK   64  A    between atoms: _154  and  _156
REMARK   65  A    between atoms: _156  and  _157
REMARK   66  A    between atoms: _156  and  _159
REMARK   67  A    between atoms: _159  and  _160
REMARK   68  A    between atoms: _165  and  _166
REMARK   69  A    between atoms: _168  and  _170
REMARK   70  A    between atoms: _170  and  _171
REMARK   71  A    between atoms: _170  and  _173
REMARK   72  A    between atoms: _173  and  _174
REMARK   73  A    between atoms: _177  and  _179
REMARK   74  A    between atoms: _179  and  _180
REMARK   75  A    between atoms: _179  and  _182
REMARK   76  A    between atoms: _182  and  _183
REMARK   77  A    between atoms: _183  and  _184
REMARK   78  A    between atoms: _189  and  _191
REMARK   79  A    between atoms: _191  and  _192
REMARK   80  A    between atoms: _194  and  _196
REMARK   81  A    between atoms: _196  and  _197
REMARK   82  A    between atoms: _196  and  _199
REMARK   83  A    between atoms: _199  and  _200
REMARK   84  A    between atoms: _200  and  _201
REMARK   85  A    between atoms: _201  and  _202
REMARK   86  A    between atoms: _202  and  _203
REMARK   87  A    between atoms: _207  and  _209
REMARK   88  A    between atoms: _209  and  _210
REMARK   89  A    between atoms: _209  and  _212
REMARK   90  A    between atoms: _212  and  _213
REMARK   91  A    between atoms: _223  and  _225
REMARK   92  A    between atoms: _225  and  _226
REMARK   93  A    between atoms: _225  and  _228
REMARK   94  A    between atoms: _228  and  _229
REMARK   95  A    between atoms: _232  and  _234
REMARK   96  A    between atoms: _234  and  _235
REMARK   97  A    between atoms: _234  and  _237
REMARK   98  A    between atoms: _237  and  _238
REMARK   99  A    between atoms: _238  and  _239
REMARK  100  A    between atoms: _239  and  _240
REMARK  101  A    between atoms: _240  and  _241
REMARK  102  A    between atoms: _245  and  _247
REMARK  103  A    between atoms: _247  and  _248
REMARK  104  A    between atoms: _247  and  _250
REMARK  105  A    between atoms: _250  and  _251
REMARK  106  A    between atoms: _257  and  _259
REMARK  107  A    between atoms: _259  and  _260
REMARK  108  A    between atoms: _259  and  _262
REMARK  109  A    between atoms: _262  and  _263
REMARK  110  A    between atoms: _269  and  _271
REMARK  111  A    between atoms: _271  and  _272
REMARK  112  A    between atoms: _271  and  _274
REMARK  113  A    between atoms: _274  and  _275
REMARK  114  A    between atoms: _278  and  _280
REMARK  115  A    between atoms: _280  and  _281
REMARK  116  A    between atoms: _280  and  _283
REMARK  117  A    between atoms: _283  and  _284
REMARK  118  A    between atoms: _286  and  _288
REMARK  119  A    between atoms: _288  and  _289
REMARK  120  A    between atoms: _288  and  _291
REMARK  121  A    between atoms: _291  and  _292
REMARK  122  A    between atoms: _302  and  _304
REMARK  123  A    between atoms: _304  and  _305
REMARK  124  A    between atoms: _307  and  _309
REMARK  125  A    between atoms: _309  and  _310
REMARK  126  A    between atoms: _309  and  _312
REMARK  127  A    between atoms: _312  and  _313
REMARK  128  A    between atoms: _316  and  _318
REMARK  129  A    between atoms: _318  and  _319
REMARK  130  A    between atoms: _318  and  _321
REMARK  131  A    between atoms: _321  and  _322
REMARK  132  A    between atoms: _325  and  _327
REMARK  133  A    between atoms: _327  and  _328
REMARK  134  A    between atoms: _330  and  _332
REMARK  135  A    between atoms: _332  and  _333
REMARK  136  A    between atoms: _332  and  _335
REMARK  137  A    between atoms: _335  and  _336
REMARK  138  A    between atoms: _339  and  _341
REMARK  139  A    between atoms: _341  and  _342
REMARK  140  A    between atoms: _345  and  _347
REMARK  141  A    between atoms: _347  and  _348
REMARK  142  A    between atoms: _347  and  _350
REMARK  143  A    between atoms: _350  and  _351
REMARK  144  A    between atoms: _356  and  _357
REMARK  145  A    between atoms: _359  and  _361
REMARK  146  A    between atoms: _361  and  _362
REMARK  147  A    between atoms: _361  and  _364
REMARK  148  A    between atoms: _364  and  _365
REMARK  149  A    between atoms: _368  and  _370
REMARK  150  A    between atoms: _370  and  _371
REMARK  151  A    between atoms: _374  and  _376
REMARK  152  A    between atoms: _376  and  _377
REMARK  153  A    between atoms: _376  and  _379
REMARK  154  A    between atoms: _379  and  _380
REMARK  155  A    between atoms: _380  and  _381
REMARK  156  A    between atoms: _381  and  _382
REMARK  157  A    between atoms: _391  and  _393
REMARK  158  A    between atoms: _393  and  _394
REMARK  159  A    between atoms: _393  and  _396
REMARK  160  A    between atoms: _396  and  _397
REMARK  161  A    between atoms: _407  and  _409
REMARK  162  A    between atoms: _409  and  _410
REMARK  163  A    between atoms: _409  and  _412
REMARK  164  A    between atoms: _412  and  _413
REMARK  165  A    between atoms: _418  and  _419
REMARK  166  A    between atoms: _421  and  _423
REMARK  167  A    between atoms: _423  and  _424
REMARK  168  A    between atoms: _423  and  _426
REMARK  169  A    between atoms: _426  and  _427
REMARK  170  A    between atoms: _430  and  _432
REMARK  171  A    between atoms: _432  and  _433
REMARK  172  A    between atoms: _432  and  _435
REMARK  173  A    between atoms: _435  and  _436
REMARK  174  A    between atoms: _436  and  _437
REMARK  175  A    between atoms: _437  and  _438
REMARK  176  A    between atoms: _438  and  _439
REMARK  177  A    between atoms: _443  and  _445
REMARK  178  A    between atoms: _445  and  _446
REMARK  179  A    between atoms: _445  and  _448
REMARK  180  A    between atoms: _448  and  _449
REMARK  181  A    between atoms: _452  and  _454
REMARK  182  A    between atoms: _454  and  _455
REMARK  183  A    between atoms: _454  and  _457
REMARK  184  A    between atoms: _460  and  _462
REMARK  185  A    between atoms: _462  and  _463
REMARK  186  A    between atoms: _462  and  _465
REMARK  187  A    between atoms: _465  and  _466
REMARK  188  A    between atoms: _469  and  _471
REMARK  189  A    between atoms: _471  and  _472
REMARK  190  A    between atoms: _471  and  _474
REMARK  191  A    between atoms: _474  and  _475
REMARK  192  A    between atoms: _477  and  _479
REMARK  193  A    between atoms: _479  and  _480
REMARK  194  A    between atoms: _482  and  _484
REMARK  195  A    between atoms: _484  and  _485
REMARK  196  A    between atoms: _484  and  _487
REMARK  197  A    between atoms: _487  and  _488
REMARK  198  A    between atoms: _491  and  _493
REMARK  199  A    between atoms: _493  and  _494
REMARK  200  A    between atoms: _493  and  _496
REMARK  201  A    between atoms: _496  and  _497
REMARK  202  A    between atoms: _500  and  _502
REMARK  203  A    between atoms: _502  and  _503
REMARK  204  A    between atoms: _502  and  _505
REMARK  205  A    between atoms: _505  and  _506
REMARK  206  A    between atoms: _511  and  _513
REMARK  207  A    between atoms: _513  and  _514
REMARK  208  A    between atoms: _513  and  _516
REMARK  209  A    between atoms: _516  and  _517
REMARK  210  A    between atoms: _520  and  _522
REMARK  211  A    between atoms: _522  and  _523
REMARK  212  A    between atoms: _522  and  _525
REMARK  213  A    between atoms: _525  and  _526
REMARK  214  A    between atoms: _526  and  _527
REMARK  215  A    between atoms: _527  and  _528
REMARK  216  A    between atoms: _537  and  _539
REMARK  217  A    between atoms: _539  and  _540
REMARK  218  A    between atoms: _539  and  _542
REMARK  219  A    between atoms: _542  and  _543
REMARK  220  A    between atoms: _546  and  _548
REMARK  221  A    between atoms: _548  and  _549
REMARK  222  A    between atoms: _551  and  _553
REMARK  223  A    between atoms: _553  and  _554
REMARK  224  A    between atoms: _553  and  _556
REMARK  225  A    between atoms: _556  and  _557
REMARK  226  A    between atoms: _557  and  _558
REMARK  227  A    between atoms: _561  and  _563
REMARK  228  A    between atoms: _563  and  _564
REMARK  229  A    between atoms: _563  and  _566
REMARK  230  A    between atoms: _566  and  _567
REMARK  231  A    between atoms: _567  and  _568
REMARK  232  A    between atoms: _568  and  _569
REMARK  233  A    between atoms: _578  and  _580
REMARK  234  A    between atoms: _580  and  _581
REMARK  235  A    between atoms: _580  and  _583
REMARK  236  A    between atoms: _583  and  _584
REMARK  237  A    between atoms: _584  and  _585
REMARK  238  A    between atoms: _585  and  _586
REMARK  239  A    between atoms: _586  and  _587
REMARK  240  A    between atoms: _591  and  _593
REMARK  241  A    between atoms: _593  and  _594
REMARK  242  A    between atoms: _593  and  _596
REMARK  243  A    between atoms: _596  and  _597
REMARK  244  A    between atoms: _603  and  _605
REMARK  245  A    between atoms: _605  and  _606
REMARK  246  A    between atoms: _609  and  _611
REMARK  247  A    between atoms: _611  and  _612
REMARK  248  A    between atoms: _611  and  _614
REMARK  249  A    between atoms: _614  and  _615
REMARK  250  A    between atoms: _618  and  _620
REMARK  251  A    between atoms: _620  and  _621
REMARK  252  A    between atoms: _620  and  _623
REMARK  253  A    between atoms: _623  and  _624
REMARK  254  A    between atoms: _626  and  _628
REMARK  255  A    between atoms: _628  and  _629
REMARK  256  A    between atoms: _628  and  _631
REMARK  257  A    between atoms: _631  and  _632
REMARK  258  A    between atoms: _632  and  _633
REMARK  259  A    between atoms: _638  and  _640
REMARK  260  A    between atoms: _640  and  _641
REMARK  261  A    between atoms: _640  and  _643
REMARK  262  A    between atoms: _643  and  _644
REMARK  263  A    between atoms: _646  and  _648
REMARK  264  A    between atoms: _648  and  _649
REMARK  265  A    between atoms: _648  and  _651
REMARK  266  A    between atoms: _651  and  _652
REMARK  267  A    between atoms: _654  and  _656
REMARK  268  A    between atoms: _656  and  _657
REMARK  269  A    between atoms: _656  and  _659
REMARK  270  A    between atoms: _659  and  _660
REMARK  271  A    between atoms: _663  and  _665
REMARK  272  A    between atoms: _665  and  _666
REMARK  273  A    between atoms: _668  and  _670
REMARK  274  A    between atoms: _670  and  _671
REMARK  275  A    between atoms: _670  and  _673
REMARK  276  A    between atoms: _673  and  _674
REMARK  277  A    between atoms: _677  and  _679
REMARK  278  A    between atoms: _679  and  _680
REMARK  279  A    between atoms: _679  and  _682
REMARK  280  A    between atoms: _685  and  _687
REMARK  281  A    between atoms: _687  and  _688
REMARK  282  A    between atoms: _690  and  _692
REMARK  283  A    between atoms: _692  and  _693
REMARK  284  A    between atoms: _696  and  _698
REMARK  285  A    between atoms: _698  and  _699
REMARK  286  A    between atoms: _698  and  _701
REMARK                            x       y       z     vdW  Elec       q    Type
REMARK                         _______ _______ _______ _____ _____    ______ ____
ROOT
ATOM      1  O   HOH     1       9.838   9.897  -5.201  0.00  0.00    +0.000 OA
ENDROOT
TORSDOF 0
