REMARK  Name = ../refined-set-2016/3fv2/3fv2_pocket.pdb
REMARK  227 active torsions:
REMARK  status: ('A' for Active; 'I' for Inactive)
REMARK    1  A    between atoms: _1  and  _3
REMARK    2  A    between atoms: _3  and  _4
REMARK    3  A    between atoms: _3  and  _6
REMARK    4  A    between atoms: _6  and  _7
REMARK    5  A    between atoms: _10  and  _12
REMARK    6  A    between atoms: _12  and  _13
REMARK    7  A    between atoms: _12  and  _15
REMARK    8  A    between atoms: _15  and  _16
REMARK    9  A    between atoms: _19  and  _21
REMARK   10  A    between atoms: _21  and  _22
REMARK   11  A    between atoms: _21  and  _24
REMARK   12  A    between atoms: _24  and  _25
REMARK   13  A    between atoms: _25  and  _26
REMARK   14  A    between atoms: _29  and  _31
REMARK   15  A    between atoms: _31  and  _32
REMARK   16  A    between atoms: _31  and  _34
REMARK   17  A    between atoms: _34  and  _35
REMARK   18  A    between atoms: _35  and  _36
REMARK   19  A    between atoms: _40  and  _41
REMARK   20  A    between atoms: _46  and  _48
REMARK   21  A    between atoms: _48  and  _49
REMARK   22  A    between atoms: _48  and  _51
REMARK   23  A    between atoms: _51  and  _52
REMARK   24  A    between atoms: _57  and  _58
REMARK   25  A    between atoms: _60  and  _62
REMARK   26  A    between atoms: _62  and  _63
REMARK   27  A    between atoms: _62  and  _65
REMARK   28  A    between atoms: _65  and  _66
REMARK   29  A    between atoms: _66  and  _67
REMARK   30  A    between atoms: _67  and  _68
REMARK   31  A    between atoms: _68  and  _69
REMARK   32  A    between atoms: _73  and  _75
REMARK   33  A    between atoms: _75  and  _76
REMARK   34  A    between atoms: _75  and  _78
REMARK   35  A    between atoms: _78  and  _79
REMARK   36  A    between atoms: _84  and  _85
REMARK   37  A    between atoms: _87  and  _89
REMARK   38  A    between atoms: _89  and  _90
REMARK   39  A    between atoms: _92  and  _94
REMARK   40  A    between atoms: _94  and  _95
REMARK   41  A    between atoms: _98  and  _100
REMARK   42  A    between atoms: _100  and  _101
REMARK   43  A    between atoms: _100  and  _103
REMARK   44  A    between atoms: _103  and  _104
REMARK   45  A    between atoms: _114  and  _116
REMARK   46  A    between atoms: _116  and  _117
REMARK   47  A    between atoms: _119  and  _121
REMARK   48  A    between atoms: _121  and  _122
REMARK   49  A    between atoms: _121  and  _124
REMARK   50  A    between atoms: _124  and  _125
REMARK   51  A    between atoms: _125  and  _126
REMARK   52  A    between atoms: _128  and  _130
REMARK   53  A    between atoms: _130  and  _131
REMARK   54  A    between atoms: _130  and  _133
REMARK   55  A    between atoms: _136  and  _138
REMARK   56  A    between atoms: _138  and  _139
REMARK   57  A    between atoms: _143  and  _144
REMARK   58  A    between atoms: _149  and  _151
REMARK   59  A    between atoms: _151  and  _152
REMARK   60  A    between atoms: _151  and  _154
REMARK   61  A    between atoms: _154  and  _155
REMARK   62  A    between atoms: _158  and  _160
REMARK   63  A    between atoms: _160  and  _161
REMARK   64  A    between atoms: _160  and  _163
REMARK   65  A    between atoms: _163  and  _164
REMARK   66  A    between atoms: _167  and  _169
REMARK   67  A    between atoms: _169  and  _170
REMARK   68  A    between atoms: _169  and  _172
REMARK   69  A    between atoms: _172  and  _173
REMARK   70  A    between atoms: _176  and  _178
REMARK   71  A    between atoms: _178  and  _179
REMARK   72  A    between atoms: _178  and  _181
REMARK   73  A    between atoms: _181  and  _182
REMARK   74  A    between atoms: _185  and  _187
REMARK   75  A    between atoms: _187  and  _188
REMARK   76  A    between atoms: _187  and  _190
REMARK   77  A    between atoms: _190  and  _191
REMARK   78  A    between atoms: _191  and  _192
REMARK   79  A    between atoms: _192  and  _193
REMARK   80  A    between atoms: _202  and  _204
REMARK   81  A    between atoms: _204  and  _205
REMARK   82  A    between atoms: _204  and  _207
REMARK   83  A    between atoms: _207  and  _208
REMARK   84  A    between atoms: _214  and  _216
REMARK   85  A    between atoms: _216  and  _217
REMARK   86  A    between atoms: _216  and  _219
REMARK   87  A    between atoms: _219  and  _220
REMARK   88  A    between atoms: _223  and  _225
REMARK   89  A    between atoms: _225  and  _226
REMARK   90  A    between atoms: _228  and  _230
REMARK   91  A    between atoms: _230  and  _231
REMARK   92  A    between atoms: _230  and  _233
REMARK   93  A    between atoms: _233  and  _234
REMARK   94  A    between atoms: _237  and  _239
REMARK   95  A    between atoms: _239  and  _240
REMARK   96  A    between atoms: _239  and  _242
REMARK   97  A    between atoms: _242  and  _243
REMARK   98  A    between atoms: _245  and  _247
REMARK   99  A    between atoms: _247  and  _248
REMARK  100  A    between atoms: _247  and  _250
REMARK  101  A    between atoms: _250  and  _251
REMARK  102  A    between atoms: _254  and  _256
REMARK  103  A    between atoms: _256  and  _257
REMARK  104  A    between atoms: _260  and  _262
REMARK  105  A    between atoms: _262  and  _263
REMARK  106  A    between atoms: _262  and  _265
REMARK  107  A    between atoms: _268  and  _270
REMARK  108  A    between atoms: _270  and  _271
REMARK  109  A    between atoms: _270  and  _273
REMARK  110  A    between atoms: _273  and  _274
REMARK  111  A    between atoms: _274  and  _275
REMARK  112  A    between atoms: _275  and  _276
REMARK  113  A    between atoms: _285  and  _287
REMARK  114  A    between atoms: _287  and  _288
REMARK  115  A    between atoms: _287  and  _290
REMARK  116  A    between atoms: _290  and  _291
REMARK  117  A    between atoms: _294  and  _296
REMARK  118  A    between atoms: _296  and  _297
REMARK  119  A    between atoms: _299  and  _301
REMARK  120  A    between atoms: _301  and  _302
REMARK  121  A    between atoms: _301  and  _304
REMARK  122  A    between atoms: _304  and  _305
REMARK  123  A    between atoms: _307  and  _309
REMARK  124  A    between atoms: _309  and  _310
REMARK  125  A    between atoms: _309  and  _312
REMARK  126  A    between atoms: _312  and  _313
REMARK  127  A    between atoms: _316  and  _318
REMARK  128  A    between atoms: _318  and  _319
REMARK  129  A    between atoms: _318  and  _321
REMARK  130  A    between atoms: _321  and  _322
REMARK  131  A    between atoms: _322  and  _323
REMARK  132  A    between atoms: _325  and  _327
REMARK  133  A    between atoms: _327  and  _328
REMARK  134  A    between atoms: _327  and  _330
REMARK  135  A    between atoms: _330  and  _331
REMARK  136  A    between atoms: _334  and  _336
REMARK  137  A    between atoms: _336  and  _337
REMARK  138  A    between atoms: _336  and  _339
REMARK  139  A    between atoms: _339  and  _340
REMARK  140  A    between atoms: _346  and  _348
REMARK  141  A    between atoms: _348  and  _349
REMARK  142  A    between atoms: _348  and  _351
REMARK  143  A    between atoms: _351  and  _352
REMARK  144  A    between atoms: _358  and  _360
REMARK  145  A    between atoms: _360  and  _361
REMARK  146  A    between atoms: _360  and  _363
REMARK  147  A    between atoms: _366  and  _368
REMARK  148  A    between atoms: _368  and  _369
REMARK  149  A    between atoms: _368  and  _371
REMARK  150  A    between atoms: _371  and  _372
REMARK  151  A    between atoms: _372  and  _373
REMARK  152  A    between atoms: _373  and  _374
REMARK  153  A    between atoms: _383  and  _385
REMARK  154  A    between atoms: _385  and  _386
REMARK  155  A    between atoms: _385  and  _388
REMARK  156  A    between atoms: _388  and  _389
REMARK  157  A    between atoms: _394  and  _396
REMARK  158  A    between atoms: _396  and  _397
REMARK  159  A    between atoms: _396  and  _399
REMARK  160  A    between atoms: _399  and  _400
REMARK  161  A    between atoms: _402  and  _404
REMARK  162  A    between atoms: _404  and  _405
REMARK  163  A    between atoms: _404  and  _407
REMARK  164  A    between atoms: _407  and  _408
REMARK  165  A    between atoms: _411  and  _413
REMARK  166  A    between atoms: _413  and  _414
REMARK  167  A    between atoms: _416  and  _418
REMARK  168  A    between atoms: _418  and  _419
REMARK  169  A    between atoms: _418  and  _421
REMARK  170  A    between atoms: _421  and  _422
REMARK  171  A    between atoms: _425  and  _427
REMARK  172  A    between atoms: _427  and  _428
REMARK  173  A    between atoms: _427  and  _430
REMARK  174  A    between atoms: _430  and  _431
REMARK  175  A    between atoms: _434  and  _436
REMARK  176  A    between atoms: _436  and  _437
REMARK  177  A    between atoms: _436  and  _439
REMARK  178  A    between atoms: _439  and  _440
REMARK  179  A    between atoms: _443  and  _445
REMARK  180  A    between atoms: _445  and  _446
REMARK  181  A    between atoms: _445  and  _448
REMARK  182  A    between atoms: _448  and  _449
REMARK  183  A    between atoms: _449  and  _450
REMARK  184  A    between atoms: _452  and  _454
REMARK  185  A    between atoms: _454  and  _455
REMARK  186  A    between atoms: _454  and  _457
REMARK  187  A    between atoms: _457  and  _458
REMARK  188  A    between atoms: _458  and  _459
REMARK  189  A    between atoms: _462  and  _464
REMARK  190  A    between atoms: _464  and  _465
REMARK  191  A    between atoms: _464  and  _467
REMARK  192  A    between atoms: _467  and  _468
REMARK  193  A    between atoms: _470  and  _472
REMARK  194  A    between atoms: _472  and  _473
REMARK  195  A    between atoms: _472  and  _475
REMARK  196  A    between atoms: _475  and  _476
REMARK  197  A    between atoms: _479  and  _481
REMARK  198  A    between atoms: _481  and  _482
REMARK  199  A    between atoms: _481  and  _484
REMARK  200  A    between atoms: _484  and  _485
REMARK  201  A    between atoms: _487  and  _489
REMARK  202  A    between atoms: _489  and  _490
REMARK  203  A    between atoms: _489  and  _492
REMARK  204  A    between atoms: _492  and  _493
REMARK  205  A    between atoms: _496  and  _498
REMARK  206  A    between atoms: _498  and  _499
REMARK  207  A    between atoms: _498  and  _501
REMARK  208  A    between atoms: _504  and  _506
REMARK  209  A    between atoms: _506  and  _507
REMARK  210  A    between atoms: _506  and  _509
REMARK  211  A    between atoms: _509  and  _510
REMARK  212  A    between atoms: _510  and  _511
REMARK  213  A    between atoms: _511  and  _512
REMARK  214  A    between atoms: _512  and  _513
REMARK  215  A    between atoms: _517  and  _519
REMARK  216  A    between atoms: _519  and  _520
REMARK  217  A    between atoms: _522  and  _524
REMARK  218  A    between atoms: _524  and  _525
REMARK  219  A    between atoms: _524  and  _527
REMARK  220  A    between atoms: _527  and  _528
REMARK  221  A    between atoms: _533  and  _534
REMARK  222  A    between atoms: _536  and  _538
REMARK  223  A    between atoms: _538  and  _539
REMARK  224  A    between atoms: _541  and  _543
REMARK  225  A    between atoms: _543  and  _544
REMARK  226  A    between atoms: _543  and  _546
REMARK  227  A    between atoms: _546  and  _547
REMARK                            x       y       z     vdW  Elec       q    Type
REMARK                         _______ _______ _______ _____ _____    ______ ____
ROOT
ATOM      1  C   GLU A   3      -8.545   6.573  24.265  0.00  0.00    +0.241 C 
ATOM      2  N   GLU A   4      -9.784   6.531  24.748  0.00  0.00    -0.297 N 
ATOM      3  H   GLU A   4     -10.113   7.291  25.377  0.00  0.00    +0.150 HD
ATOM      4  O   GLU A   3      -8.104   5.733  23.488  0.00  0.00    -0.273 OA
ENDROOT
BRANCH   2   5
ATOM      5  CA  GLU A   4     -10.697   5.429  24.409  0.00  0.00    +0.149 C 
BRANCH   5   6
ATOM      6  C   GLU A   4     -11.179   5.526  22.962  0.00  0.00    +0.244 C 
ATOM      7  O   GLU A   4     -11.427   6.626  22.468  0.00  0.00    -0.273 OA
ATOM      8  N   PRO A   5     -11.313   4.386  22.258  0.00  0.00    -0.272 N 
ATOM      9  CA  PRO A   5     -10.949   3.005  22.588  0.00  0.00    +0.152 C 
ATOM     10  CB  PRO A   5     -12.059   2.207  21.893  0.00  0.00    +0.031 C 
ATOM     11  CG  PRO A   5     -12.283   3.010  20.607  0.00  0.00    +0.024 C 
ATOM     12  CD  PRO A   5     -11.953   4.462  20.931  0.00  0.00    +0.094 C 
BRANCH   9  13
ATOM     13  C   PRO A   5      -9.589   2.616  21.993  0.00  0.00    +0.241 C 
ATOM     14  N   TYR A   6      -8.722   3.606  21.771  0.00  0.00    -0.298 N 
ATOM     15  H   TYR A   6      -9.000   4.579  22.011  0.00  0.00    +0.150 HD
ATOM     16  O   PRO A   5      -9.345   1.435  21.743  0.00  0.00    -0.273 OA
BRANCH  14  17
ATOM     17  CA  TYR A   6      -7.388   3.370  21.199  0.00  0.00    +0.141 C 
BRANCH  17  18
ATOM     18  C   TYR A   6      -6.399   2.789  22.197  0.00  0.00    +0.227 C 
ATOM     19  O   TYR A   6      -5.702   1.817  21.890  0.00  0.00    -0.286 OA
ENDBRANCH  17  18
BRANCH  17  20
ATOM     20  CB  TYR A   6      -6.803   4.672  20.631  0.00  0.00    +0.054 C 
BRANCH  20  21
ATOM     21  CG  TYR A   6      -7.703   5.353  19.647  0.00  0.00    -0.020 A 
ATOM     22  CD2 TYR A   6      -8.608   6.324  20.063  0.00  0.00    -0.001 A 
ATOM     23  CE2 TYR A   6      -9.449   6.954  19.162  0.00  0.00    +0.036 A 
ATOM     24  CZ  TYR A   6      -9.376   6.606  17.823  0.00  0.00    +0.134 A 
ATOM     25  CE1 TYR A   6      -8.474   5.654  17.386  0.00  0.00    +0.036 A 
ATOM     26  CD1 TYR A   6      -7.657   5.026  18.290  0.00  0.00    -0.001 A 
BRANCH  24  27
ATOM     27  OH  TYR A   6     -10.216   7.219  16.912  0.00  0.00    -0.506 OA
ATOM     28  HH  TYR A   6     -10.053   8.195  16.919  0.00  0.00    +0.292 HD
ENDBRANCH  24  27
ENDBRANCH  20  21
ENDBRANCH  17  20
ENDBRANCH  14  17
ENDBRANCH   9  13
ENDBRANCH   5   6
BRANCH   5  29
ATOM     29  CB  GLU A   4     -11.910   5.447  25.334  0.00  0.00    +0.041 C 
BRANCH  29  30
ATOM     30  CG  GLU A   4     -11.585   5.391  26.816  0.00  0.00    +0.116 C 
BRANCH  30  31
ATOM     31  CD  GLU A   4     -12.831   5.302  27.685  0.00  0.00    +0.365 C 
ATOM     32  OE2 GLU A   4     -12.690   5.186  28.925  0.00  0.00    -0.246 OA
ATOM     33  OE1 GLU A   4     -13.953   5.356  27.134  0.00  0.00    -0.246 OA
ENDBRANCH  30  31
ENDBRANCH  29  30
ENDBRANCH   5  29
ENDBRANCH   2   5
BRANCH   1  34
ATOM     34  CA  GLU A   3      -7.661   7.731  24.697  0.00  0.00    +0.149 C 
BRANCH  34  37
ATOM     35  C   LEU A   2      -5.788   7.982  26.256  0.00  0.00    +0.241 C 
ATOM     36  O   LEU A   2      -5.922   9.214  26.317  0.00  0.00    -0.273 OA
ATOM     37  N   GLU A   3      -6.557   7.199  25.503  0.00  0.00    -0.297 N 
ATOM     38  H   GLU A   3      -6.369   6.176  25.486  0.00  0.00    +0.150 HD
BRANCH  35  39
ATOM     39  CA  LEU A   2      -4.711   7.273  27.069  0.00  0.00    +0.149 C 
BRANCH  39  41
ATOM     40  C   ILE A   1      -2.826   7.703  25.621  0.00  0.00    +0.238 C 
ATOM     41  N   LEU A   2      -3.417   7.882  26.798  0.00  0.00    -0.297 N 
ATOM     42  H   LEU A   2      -2.953   8.459  27.528  0.00  0.00    +0.150 HD
ATOM     43  O   ILE A   1      -3.293   6.975  24.743  0.00  0.00    -0.274 OA
BRANCH  40  44
ATOM     44  CA  ILE A   1      -1.512   8.458  25.388  0.00  0.00    +0.145 C 
BRANCH  44  45
ATOM     45  N   ILE A   1      -0.710   7.636  24.490  0.00  0.00    -0.238 NA
ATOM     46  H   ILE A   1      -1.188   7.017  23.805  0.00  0.00    +0.142 HD
ENDBRANCH  44  45
BRANCH  44  47
ATOM     47  CB  ILE A   1      -1.749   9.853  24.751  0.00  0.00    +0.025 C 
ATOM     48  CG2 ILE A   1      -2.634   9.745  23.509  0.00  0.00    +0.002 C 
BRANCH  47  49
ATOM     49  CG1 ILE A   1      -2.289  10.873  25.766  0.00  0.00    +0.002 C 
ATOM     50  CD1 ILE A   1      -2.097  12.311  25.278  0.00  0.00    +0.000 C 
ENDBRANCH  47  49
ENDBRANCH  44  47
ENDBRANCH  40  44
ENDBRANCH  39  41
BRANCH  39  51
ATOM     51  CB  LEU A   2      -5.056   7.360  28.555  0.00  0.00    +0.029 C 
BRANCH  51  52
ATOM     52  CG  LEU A   2      -4.171   6.533  29.478  0.00  0.00    +0.002 C 
ATOM     53  CD2 LEU A   2      -4.479   6.888  30.925  0.00  0.00    +0.000 C 
ATOM     54  CD1 LEU A   2      -4.361   5.039  29.239  0.00  0.00    +0.000 C 
ENDBRANCH  51  52
ENDBRANCH  39  51
ENDBRANCH  35  39
ENDBRANCH  34  37
BRANCH  34  55
ATOM     55  CB  GLU A   3      -7.132   8.455  23.448  0.00  0.00    +0.041 C 
BRANCH  55  56
ATOM     56  CG  GLU A   3      -8.224   9.230  22.697  0.00  0.00    +0.116 C 
BRANCH  56  57
ATOM     57  CD  GLU A   3      -8.612  10.496  23.419  0.00  0.00    +0.365 C 
ATOM     58  OE2 GLU A   3      -7.712  11.314  23.714  0.00  0.00    -0.246 OA
ATOM     59  OE1 GLU A   3      -9.814  10.653  23.709  0.00  0.00    -0.246 OA
ENDBRANCH  56  57
ENDBRANCH  55  56
ENDBRANCH  34  55
ENDBRANCH   1  34
TORSDOF 24
REMARK  Name = ../refined-set-2016/3fv2/3fv2_pocket.pdb
REMARK  227 active torsions:
REMARK  status: ('A' for Active; 'I' for Inactive)
REMARK    1  A    between atoms: _1  and  _3
REMARK    2  A    between atoms: _3  and  _4
REMARK    3  A    between atoms: _3  and  _6
REMARK    4  A    between atoms: _6  and  _7
REMARK    5  A    between atoms: _10  and  _12
REMARK    6  A    between atoms: _12  and  _13
REMARK    7  A    between atoms: _12  and  _15
REMARK    8  A    between atoms: _15  and  _16
REMARK    9  A    between atoms: _19  and  _21
REMARK   10  A    between atoms: _21  and  _22
REMARK   11  A    between atoms: _21  and  _24
REMARK   12  A    between atoms: _24  and  _25
REMARK   13  A    between atoms: _25  and  _26
REMARK   14  A    between atoms: _29  and  _31
REMARK   15  A    between atoms: _31  and  _32
REMARK   16  A    between atoms: _31  and  _34
REMARK   17  A    between atoms: _34  and  _35
REMARK   18  A    between atoms: _35  and  _36
REMARK   19  A    between atoms: _40  and  _41
REMARK   20  A    between atoms: _46  and  _48
REMARK   21  A    between atoms: _48  and  _49
REMARK   22  A    between atoms: _48  and  _51
REMARK   23  A    between atoms: _51  and  _52
REMARK   24  A    between atoms: _57  and  _58
REMARK   25  A    between atoms: _60  and  _62
REMARK   26  A    between atoms: _62  and  _63
REMARK   27  A    between atoms: _62  and  _65
REMARK   28  A    between atoms: _65  and  _66
REMARK   29  A    between atoms: _66  and  _67
REMARK   30  A    between atoms: _67  and  _68
REMARK   31  A    between atoms: _68  and  _69
REMARK   32  A    between atoms: _73  and  _75
REMARK   33  A    between atoms: _75  and  _76
REMARK   34  A    between atoms: _75  and  _78
REMARK   35  A    between atoms: _78  and  _79
REMARK   36  A    between atoms: _84  and  _85
REMARK   37  A    between atoms: _87  and  _89
REMARK   38  A    between atoms: _89  and  _90
REMARK   39  A    between atoms: _92  and  _94
REMARK   40  A    between atoms: _94  and  _95
REMARK   41  A    between atoms: _98  and  _100
REMARK   42  A    between atoms: _100  and  _101
REMARK   43  A    between atoms: _100  and  _103
REMARK   44  A    between atoms: _103  and  _104
REMARK   45  A    between atoms: _114  and  _116
REMARK   46  A    between atoms: _116  and  _117
REMARK   47  A    between atoms: _119  and  _121
REMARK   48  A    between atoms: _121  and  _122
REMARK   49  A    between atoms: _121  and  _124
REMARK   50  A    between atoms: _124  and  _125
REMARK   51  A    between atoms: _125  and  _126
REMARK   52  A    between atoms: _128  and  _130
REMARK   53  A    between atoms: _130  and  _131
REMARK   54  A    between atoms: _130  and  _133
REMARK   55  A    between atoms: _136  and  _138
REMARK   56  A    between atoms: _138  and  _139
REMARK   57  A    between atoms: _143  and  _144
REMARK   58  A    between atoms: _149  and  _151
REMARK   59  A    between atoms: _151  and  _152
REMARK   60  A    between atoms: _151  and  _154
REMARK   61  A    between atoms: _154  and  _155
REMARK   62  A    between atoms: _158  and  _160
REMARK   63  A    between atoms: _160  and  _161
REMARK   64  A    between atoms: _160  and  _163
REMARK   65  A    between atoms: _163  and  _164
REMARK   66  A    between atoms: _167  and  _169
REMARK   67  A    between atoms: _169  and  _170
REMARK   68  A    between atoms: _169  and  _172
REMARK   69  A    between atoms: _172  and  _173
REMARK   70  A    between atoms: _176  and  _178
REMARK   71  A    between atoms: _178  and  _179
REMARK   72  A    between atoms: _178  and  _181
REMARK   73  A    between atoms: _181  and  _182
REMARK   74  A    between atoms: _185  and  _187
REMARK   75  A    between atoms: _187  and  _188
REMARK   76  A    between atoms: _187  and  _190
REMARK   77  A    between atoms: _190  and  _191
REMARK   78  A    between atoms: _191  and  _192
REMARK   79  A    between atoms: _192  and  _193
REMARK   80  A    between atoms: _202  and  _204
REMARK   81  A    between atoms: _204  and  _205
REMARK   82  A    between atoms: _204  and  _207
REMARK   83  A    between atoms: _207  and  _208
REMARK   84  A    between atoms: _214  and  _216
REMARK   85  A    between atoms: _216  and  _217
REMARK   86  A    between atoms: _216  and  _219
REMARK   87  A    between atoms: _219  and  _220
REMARK   88  A    between atoms: _223  and  _225
REMARK   89  A    between atoms: _225  and  _226
REMARK   90  A    between atoms: _228  and  _230
REMARK   91  A    between atoms: _230  and  _231
REMARK   92  A    between atoms: _230  and  _233
REMARK   93  A    between atoms: _233  and  _234
REMARK   94  A    between atoms: _237  and  _239
REMARK   95  A    between atoms: _239  and  _240
REMARK   96  A    between atoms: _239  and  _242
REMARK   97  A    between atoms: _242  and  _243
REMARK   98  A    between atoms: _245  and  _247
REMARK   99  A    between atoms: _247  and  _248
REMARK  100  A    between atoms: _247  and  _250
REMARK  101  A    between atoms: _250  and  _251
REMARK  102  A    between atoms: _254  and  _256
REMARK  103  A    between atoms: _256  and  _257
REMARK  104  A    between atoms: _260  and  _262
REMARK  105  A    between atoms: _262  and  _263
REMARK  106  A    between atoms: _262  and  _265
REMARK  107  A    between atoms: _268  and  _270
REMARK  108  A    between atoms: _270  and  _271
REMARK  109  A    between atoms: _270  and  _273
REMARK  110  A    between atoms: _273  and  _274
REMARK  111  A    between atoms: _274  and  _275
REMARK  112  A    between atoms: _275  and  _276
REMARK  113  A    between atoms: _285  and  _287
REMARK  114  A    between atoms: _287  and  _288
REMARK  115  A    between atoms: _287  and  _290
REMARK  116  A    between atoms: _290  and  _291
REMARK  117  A    between atoms: _294  and  _296
REMARK  118  A    between atoms: _296  and  _297
REMARK  119  A    between atoms: _299  and  _301
REMARK  120  A    between atoms: _301  and  _302
REMARK  121  A    between atoms: _301  and  _304
REMARK  122  A    between atoms: _304  and  _305
REMARK  123  A    between atoms: _307  and  _309
REMARK  124  A    between atoms: _309  and  _310
REMARK  125  A    between atoms: _309  and  _312
REMARK  126  A    between atoms: _312  and  _313
REMARK  127  A    between atoms: _316  and  _318
REMARK  128  A    between atoms: _318  and  _319
REMARK  129  A    between atoms: _318  and  _321
REMARK  130  A    between atoms: _321  and  _322
REMARK  131  A    between atoms: _322  and  _323
REMARK  132  A    between atoms: _325  and  _327
REMARK  133  A    between atoms: _327  and  _328
REMARK  134  A    between atoms: _327  and  _330
REMARK  135  A    between atoms: _330  and  _331
REMARK  136  A    between atoms: _334  and  _336
REMARK  137  A    between atoms: _336  and  _337
REMARK  138  A    between atoms: _336  and  _339
REMARK  139  A    between atoms: _339  and  _340
REMARK  140  A    between atoms: _346  and  _348
REMARK  141  A    between atoms: _348  and  _349
REMARK  142  A    between atoms: _348  and  _351
REMARK  143  A    between atoms: _351  and  _352
REMARK  144  A    between atoms: _358  and  _360
REMARK  145  A    between atoms: _360  and  _361
REMARK  146  A    between atoms: _360  and  _363
REMARK  147  A    between atoms: _366  and  _368
REMARK  148  A    between atoms: _368  and  _369
REMARK  149  A    between atoms: _368  and  _371
REMARK  150  A    between atoms: _371  and  _372
REMARK  151  A    between atoms: _372  and  _373
REMARK  152  A    between atoms: _373  and  _374
REMARK  153  A    between atoms: _383  and  _385
REMARK  154  A    between atoms: _385  and  _386
REMARK  155  A    between atoms: _385  and  _388
REMARK  156  A    between atoms: _388  and  _389
REMARK  157  A    between atoms: _394  and  _396
REMARK  158  A    between atoms: _396  and  _397
REMARK  159  A    between atoms: _396  and  _399
REMARK  160  A    between atoms: _399  and  _400
REMARK  161  A    between atoms: _402  and  _404
REMARK  162  A    between atoms: _404  and  _405
REMARK  163  A    between atoms: _404  and  _407
REMARK  164  A    between atoms: _407  and  _408
REMARK  165  A    between atoms: _411  and  _413
REMARK  166  A    between atoms: _413  and  _414
REMARK  167  A    between atoms: _416  and  _418
REMARK  168  A    between atoms: _418  and  _419
REMARK  169  A    between atoms: _418  and  _421
REMARK  170  A    between atoms: _421  and  _422
REMARK  171  A    between atoms: _425  and  _427
REMARK  172  A    between atoms: _427  and  _428
REMARK  173  A    between atoms: _427  and  _430
REMARK  174  A    between atoms: _430  and  _431
REMARK  175  A    between atoms: _434  and  _436
REMARK  176  A    between atoms: _436  and  _437
REMARK  177  A    between atoms: _436  and  _439
REMARK  178  A    between atoms: _439  and  _440
REMARK  179  A    between atoms: _443  and  _445
REMARK  180  A    between atoms: _445  and  _446
REMARK  181  A    between atoms: _445  and  _448
REMARK  182  A    between atoms: _448  and  _449
REMARK  183  A    between atoms: _449  and  _450
REMARK  184  A    between atoms: _452  and  _454
REMARK  185  A    between atoms: _454  and  _455
REMARK  186  A    between atoms: _454  and  _457
REMARK  187  A    between atoms: _457  and  _458
REMARK  188  A    between atoms: _458  and  _459
REMARK  189  A    between atoms: _462  and  _464
REMARK  190  A    between atoms: _464  and  _465
REMARK  191  A    between atoms: _464  and  _467
REMARK  192  A    between atoms: _467  and  _468
REMARK  193  A    between atoms: _470  and  _472
REMARK  194  A    between atoms: _472  and  _473
REMARK  195  A    between atoms: _472  and  _475
REMARK  196  A    between atoms: _475  and  _476
REMARK  197  A    between atoms: _479  and  _481
REMARK  198  A    between atoms: _481  and  _482
REMARK  199  A    between atoms: _481  and  _484
REMARK  200  A    between atoms: _484  and  _485
REMARK  201  A    between atoms: _487  and  _489
REMARK  202  A    between atoms: _489  and  _490
REMARK  203  A    between atoms: _489  and  _492
REMARK  204  A    between atoms: _492  and  _493
REMARK  205  A    between atoms: _496  and  _498
REMARK  206  A    between atoms: _498  and  _499
REMARK  207  A    between atoms: _498  and  _501
REMARK  208  A    between atoms: _504  and  _506
REMARK  209  A    between atoms: _506  and  _507
REMARK  210  A    between atoms: _506  and  _509
REMARK  211  A    between atoms: _509  and  _510
REMARK  212  A    between atoms: _510  and  _511
REMARK  213  A    between atoms: _511  and  _512
REMARK  214  A    between atoms: _512  and  _513
REMARK  215  A    between atoms: _517  and  _519
REMARK  216  A    between atoms: _519  and  _520
REMARK  217  A    between atoms: _522  and  _524
REMARK  218  A    between atoms: _524  and  _525
REMARK  219  A    between atoms: _524  and  _527
REMARK  220  A    between atoms: _527  and  _528
REMARK  221  A    between atoms: _533  and  _534
REMARK  222  A    between atoms: _536  and  _538
REMARK  223  A    between atoms: _538  and  _539
REMARK  224  A    between atoms: _541  and  _543
REMARK  225  A    between atoms: _543  and  _544
REMARK  226  A    between atoms: _543  and  _546
REMARK  227  A    between atoms: _546  and  _547
REMARK                            x       y       z     vdW  Elec       q    Type
REMARK                         _______ _______ _______ _____ _____    ______ ____
ROOT
ATOM      1  CA  TYR A   2      -0.584  15.084  21.961  0.00  0.00    +0.153 C 
ENDROOT
BRANCH   1   4
ATOM      2  C   LYS A   1      -0.028  15.181  24.328  0.00  0.00    +0.238 C 
ATOM      3  O   LYS A   1       0.902  14.386  24.207  0.00  0.00    -0.274 OA
ATOM      4  N   TYR A   2      -0.817  15.551  23.326  0.00  0.00    -0.297 N 
ATOM      5  H   TYR A   2      -1.618  16.187  23.517  0.00  0.00    +0.150 HD
BRANCH   2   6
ATOM      6  CA  LYS A   1      -0.338  15.835  25.654  0.00  0.00    +0.145 C 
BRANCH   6   7
ATOM      7  N   LYS A   1       0.117  15.029  26.795  0.00  0.00    -0.238 NA
ATOM      8  H   LYS A   1       1.134  14.850  26.919  0.00  0.00    +0.142 HD
ENDBRANCH   6   7
BRANCH   6   9
ATOM      9  CB  LYS A   1       0.292  17.234  25.680  0.00  0.00    +0.026 C 
BRANCH   9  10
ATOM     10  CG  LYS A   1       0.012  18.027  26.960  0.00  0.00    -0.000 C 
BRANCH  10  11
ATOM     11  CD  LYS A   1       0.891  19.250  27.008  0.00  0.00    -0.024 C 
BRANCH  11  12
ATOM     12  CE  LYS A   1       0.526  20.140  28.179  0.00  0.00    -0.086 C 
BRANCH  12  13
ATOM     13  NZ  LYS A   1      -0.747  20.848  27.951  0.00  0.00    +0.380 N 
ATOM     14  HZ1 LYS A   1      -0.962  21.446  28.774  0.00  0.00    -0.089 HD
ATOM     15  HZ2 LYS A   1      -1.509  20.153  27.817  0.00  0.00    -0.089 HD
ATOM     16  HZ3 LYS A   1      -0.665  21.442  27.101  0.00  0.00    -0.089 HD
ENDBRANCH  12  13
ENDBRANCH  11  12
ENDBRANCH  10  11
ENDBRANCH   9  10
ENDBRANCH   6   9
ENDBRANCH   2   6
ENDBRANCH   1   4
BRANCH   1  17
ATOM     17  C   TYR A   2       0.571  15.863  21.352  0.00  0.00    +0.241 C 
ATOM     18  N   GLY A   3       0.455  17.187  21.324  0.00  0.00    -0.295 N 
ATOM     19  H   GLY A   3      -0.464  17.623  21.540  0.00  0.00    +0.150 HD
ATOM     20  O   TYR A   2       1.543  15.263  20.891  0.00  0.00    -0.273 OA
BRANCH  18  21
ATOM     21  CA  GLY A   3       1.594  18.042  20.995  0.00  0.00    +0.176 C 
BRANCH  21  22
ATOM     22  C   GLY A   3       1.214  19.268  20.200  0.00  0.00    +0.243 C 
ATOM     23  N   ALA A   4       1.697  20.407  20.674  0.00  0.00    -0.298 N 
ATOM     24  H   ALA A   4       2.209  20.396  21.579  0.00  0.00    +0.150 HD
ATOM     25  O   GLY A   3       0.516  19.182  19.182  0.00  0.00    -0.273 OA
BRANCH  23  26
ATOM     26  CA  ALA A   4       1.537  21.671  19.976  0.00  0.00    +0.137 C 
ATOM     27  CB  ALA A   4       0.293  22.411  20.457  0.00  0.00    +0.030 C 
BRANCH  26  28
ATOM     28  C   ALA A   4       2.782  22.500  20.213  0.00  0.00    +0.227 C 
ATOM     29  O   ALA A   4       3.543  22.235  21.136  0.00  0.00    -0.286 OA
ENDBRANCH  26  28
ENDBRANCH  23  26
ENDBRANCH  21  22
ENDBRANCH  18  21
ENDBRANCH   1  17
BRANCH   1  30
ATOM     30  CB  TYR A   2      -1.859  15.197  21.119  0.00  0.00    +0.055 C 
BRANCH  30  31
ATOM     31  CG  TYR A   2      -2.867  14.114  21.416  0.00  0.00    -0.020 A 
ATOM     32  CD2 TYR A   2      -3.752  14.212  22.500  0.00  0.00    -0.001 A 
ATOM     33  CE2 TYR A   2      -4.677  13.203  22.762  0.00  0.00    +0.036 A 
ATOM     34  CZ  TYR A   2      -4.723  12.088  21.927  0.00  0.00    +0.134 A 
ATOM     35  CE1 TYR A   2      -3.862  11.982  20.858  0.00  0.00    +0.036 A 
ATOM     36  CD1 TYR A   2      -2.953  12.996  20.598  0.00  0.00    -0.001 A 
BRANCH  34  37
ATOM     37  OH  TYR A   2      -5.631  11.081  22.152  0.00  0.00    -0.506 OA
ATOM     38  HH  TYR A   2      -6.549  11.449  22.102  0.00  0.00    +0.292 HD
ENDBRANCH  34  37
ENDBRANCH  30  31
ENDBRANCH   1  30
TORSDOF 16
REMARK  Name = ../refined-set-2016/3fv2/3fv2_pocket.pdb
REMARK  227 active torsions:
REMARK  status: ('A' for Active; 'I' for Inactive)
REMARK    1  A    between atoms: _1  and  _3
REMARK    2  A    between atoms: _3  and  _4
REMARK    3  A    between atoms: _3  and  _6
REMARK    4  A    between atoms: _6  and  _7
REMARK    5  A    between atoms: _10  and  _12
REMARK    6  A    between atoms: _12  and  _13
REMARK    7  A    between atoms: _12  and  _15
REMARK    8  A    between atoms: _15  and  _16
REMARK    9  A    between atoms: _19  and  _21
REMARK   10  A    between atoms: _21  and  _22
REMARK   11  A    between atoms: _21  and  _24
REMARK   12  A    between atoms: _24  and  _25
REMARK   13  A    between atoms: _25  and  _26
REMARK   14  A    between atoms: _29  and  _31
REMARK   15  A    between atoms: _31  and  _32
REMARK   16  A    between atoms: _31  and  _34
REMARK   17  A    between atoms: _34  and  _35
REMARK   18  A    between atoms: _35  and  _36
REMARK   19  A    between atoms: _40  and  _41
REMARK   20  A    between atoms: _46  and  _48
REMARK   21  A    between atoms: _48  and  _49
REMARK   22  A    between atoms: _48  and  _51
REMARK   23  A    between atoms: _51  and  _52
REMARK   24  A    between atoms: _57  and  _58
REMARK   25  A    between atoms: _60  and  _62
REMARK   26  A    between atoms: _62  and  _63
REMARK   27  A    between atoms: _62  and  _65
REMARK   28  A    between atoms: _65  and  _66
REMARK   29  A    between atoms: _66  and  _67
REMARK   30  A    between atoms: _67  and  _68
REMARK   31  A    between atoms: _68  and  _69
REMARK   32  A    between atoms: _73  and  _75
REMARK   33  A    between atoms: _75  and  _76
REMARK   34  A    between atoms: _75  and  _78
REMARK   35  A    between atoms: _78  and  _79
REMARK   36  A    between atoms: _84  and  _85
REMARK   37  A    between atoms: _87  and  _89
REMARK   38  A    between atoms: _89  and  _90
REMARK   39  A    between atoms: _92  and  _94
REMARK   40  A    between atoms: _94  and  _95
REMARK   41  A    between atoms: _98  and  _100
REMARK   42  A    between atoms: _100  and  _101
REMARK   43  A    between atoms: _100  and  _103
REMARK   44  A    between atoms: _103  and  _104
REMARK   45  A    between atoms: _114  and  _116
REMARK   46  A    between atoms: _116  and  _117
REMARK   47  A    between atoms: _119  and  _121
REMARK   48  A    between atoms: _121  and  _122
REMARK   49  A    between atoms: _121  and  _124
REMARK   50  A    between atoms: _124  and  _125
REMARK   51  A    between atoms: _125  and  _126
REMARK   52  A    between atoms: _128  and  _130
REMARK   53  A    between atoms: _130  and  _131
REMARK   54  A    between atoms: _130  and  _133
REMARK   55  A    between atoms: _136  and  _138
REMARK   56  A    between atoms: _138  and  _139
REMARK   57  A    between atoms: _143  and  _144
REMARK   58  A    between atoms: _149  and  _151
REMARK   59  A    between atoms: _151  and  _152
REMARK   60  A    between atoms: _151  and  _154
REMARK   61  A    between atoms: _154  and  _155
REMARK   62  A    between atoms: _158  and  _160
REMARK   63  A    between atoms: _160  and  _161
REMARK   64  A    between atoms: _160  and  _163
REMARK   65  A    between atoms: _163  and  _164
REMARK   66  A    between atoms: _167  and  _169
REMARK   67  A    between atoms: _169  and  _170
REMARK   68  A    between atoms: _169  and  _172
REMARK   69  A    between atoms: _172  and  _173
REMARK   70  A    between atoms: _176  and  _178
REMARK   71  A    between atoms: _178  and  _179
REMARK   72  A    between atoms: _178  and  _181
REMARK   73  A    between atoms: _181  and  _182
REMARK   74  A    between atoms: _185  and  _187
REMARK   75  A    between atoms: _187  and  _188
REMARK   76  A    between atoms: _187  and  _190
REMARK   77  A    between atoms: _190  and  _191
REMARK   78  A    between atoms: _191  and  _192
REMARK   79  A    between atoms: _192  and  _193
REMARK   80  A    between atoms: _202  and  _204
REMARK   81  A    between atoms: _204  and  _205
REMARK   82  A    between atoms: _204  and  _207
REMARK   83  A    between atoms: _207  and  _208
REMARK   84  A    between atoms: _214  and  _216
REMARK   85  A    between atoms: _216  and  _217
REMARK   86  A    between atoms: _216  and  _219
REMARK   87  A    between atoms: _219  and  _220
REMARK   88  A    between atoms: _223  and  _225
REMARK   89  A    between atoms: _225  and  _226
REMARK   90  A    between atoms: _228  and  _230
REMARK   91  A    between atoms: _230  and  _231
REMARK   92  A    between atoms: _230  and  _233
REMARK   93  A    between atoms: _233  and  _234
REMARK   94  A    between atoms: _237  and  _239
REMARK   95  A    between atoms: _239  and  _240
REMARK   96  A    between atoms: _239  and  _242
REMARK   97  A    between atoms: _242  and  _243
REMARK   98  A    between atoms: _245  and  _247
REMARK   99  A    between atoms: _247  and  _248
REMARK  100  A    between atoms: _247  and  _250
REMARK  101  A    between atoms: _250  and  _251
REMARK  102  A    between atoms: _254  and  _256
REMARK  103  A    between atoms: _256  and  _257
REMARK  104  A    between atoms: _260  and  _262
REMARK  105  A    between atoms: _262  and  _263
REMARK  106  A    between atoms: _262  and  _265
REMARK  107  A    between atoms: _268  and  _270
REMARK  108  A    between atoms: _270  and  _271
REMARK  109  A    between atoms: _270  and  _273
REMARK  110  A    between atoms: _273  and  _274
REMARK  111  A    between atoms: _274  and  _275
REMARK  112  A    between atoms: _275  and  _276
REMARK  113  A    between atoms: _285  and  _287
REMARK  114  A    between atoms: _287  and  _288
REMARK  115  A    between atoms: _287  and  _290
REMARK  116  A    between atoms: _290  and  _291
REMARK  117  A    between atoms: _294  and  _296
REMARK  118  A    between atoms: _296  and  _297
REMARK  119  A    between atoms: _299  and  _301
REMARK  120  A    between atoms: _301  and  _302
REMARK  121  A    between atoms: _301  and  _304
REMARK  122  A    between atoms: _304  and  _305
REMARK  123  A    between atoms: _307  and  _309
REMARK  124  A    between atoms: _309  and  _310
REMARK  125  A    between atoms: _309  and  _312
REMARK  126  A    between atoms: _312  and  _313
REMARK  127  A    between atoms: _316  and  _318
REMARK  128  A    between atoms: _318  and  _319
REMARK  129  A    between atoms: _318  and  _321
REMARK  130  A    between atoms: _321  and  _322
REMARK  131  A    between atoms: _322  and  _323
REMARK  132  A    between atoms: _325  and  _327
REMARK  133  A    between atoms: _327  and  _328
REMARK  134  A    between atoms: _327  and  _330
REMARK  135  A    between atoms: _330  and  _331
REMARK  136  A    between atoms: _334  and  _336
REMARK  137  A    between atoms: _336  and  _337
REMARK  138  A    between atoms: _336  and  _339
REMARK  139  A    between atoms: _339  and  _340
REMARK  140  A    between atoms: _346  and  _348
REMARK  141  A    between atoms: _348  and  _349
REMARK  142  A    between atoms: _348  and  _351
REMARK  143  A    between atoms: _351  and  _352
REMARK  144  A    between atoms: _358  and  _360
REMARK  145  A    between atoms: _360  and  _361
REMARK  146  A    between atoms: _360  and  _363
REMARK  147  A    between atoms: _366  and  _368
REMARK  148  A    between atoms: _368  and  _369
REMARK  149  A    between atoms: _368  and  _371
REMARK  150  A    between atoms: _371  and  _372
REMARK  151  A    between atoms: _372  and  _373
REMARK  152  A    between atoms: _373  and  _374
REMARK  153  A    between atoms: _383  and  _385
REMARK  154  A    between atoms: _385  and  _386
REMARK  155  A    between atoms: _385  and  _388
REMARK  156  A    between atoms: _388  and  _389
REMARK  157  A    between atoms: _394  and  _396
REMARK  158  A    between atoms: _396  and  _397
REMARK  159  A    between atoms: _396  and  _399
REMARK  160  A    between atoms: _399  and  _400
REMARK  161  A    between atoms: _402  and  _404
REMARK  162  A    between atoms: _404  and  _405
REMARK  163  A    between atoms: _404  and  _407
REMARK  164  A    between atoms: _407  and  _408
REMARK  165  A    between atoms: _411  and  _413
REMARK  166  A    between atoms: _413  and  _414
REMARK  167  A    between atoms: _416  and  _418
REMARK  168  A    between atoms: _418  and  _419
REMARK  169  A    between atoms: _418  and  _421
REMARK  170  A    between atoms: _421  and  _422
REMARK  171  A    between atoms: _425  and  _427
REMARK  172  A    between atoms: _427  and  _428
REMARK  173  A    between atoms: _427  and  _430
REMARK  174  A    between atoms: _430  and  _431
REMARK  175  A    between atoms: _434  and  _436
REMARK  176  A    between atoms: _436  and  _437
REMARK  177  A    between atoms: _436  and  _439
REMARK  178  A    between atoms: _439  and  _440
REMARK  179  A    between atoms: _443  and  _445
REMARK  180  A    between atoms: _445  and  _446
REMARK  181  A    between atoms: _445  and  _448
REMARK  182  A    between atoms: _448  and  _449
REMARK  183  A    between atoms: _449  and  _450
REMARK  184  A    between atoms: _452  and  _454
REMARK  185  A    between atoms: _454  and  _455
REMARK  186  A    between atoms: _454  and  _457
REMARK  187  A    between atoms: _457  and  _458
REMARK  188  A    between atoms: _458  and  _459
REMARK  189  A    between atoms: _462  and  _464
REMARK  190  A    between atoms: _464  and  _465
REMARK  191  A    between atoms: _464  and  _467
REMARK  192  A    between atoms: _467  and  _468
REMARK  193  A    between atoms: _470  and  _472
REMARK  194  A    between atoms: _472  and  _473
REMARK  195  A    between atoms: _472  and  _475
REMARK  196  A    between atoms: _475  and  _476
REMARK  197  A    between atoms: _479  and  _481
REMARK  198  A    between atoms: _481  and  _482
REMARK  199  A    between atoms: _481  and  _484
REMARK  200  A    between atoms: _484  and  _485
REMARK  201  A    between atoms: _487  and  _489
REMARK  202  A    between atoms: _489  and  _490
REMARK  203  A    between atoms: _489  and  _492
REMARK  204  A    between atoms: _492  and  _493
REMARK  205  A    between atoms: _496  and  _498
REMARK  206  A    between atoms: _498  and  _499
REMARK  207  A    between atoms: _498  and  _501
REMARK  208  A    between atoms: _504  and  _506
REMARK  209  A    between atoms: _506  and  _507
REMARK  210  A    between atoms: _506  and  _509
REMARK  211  A    between atoms: _509  and  _510
REMARK  212  A    between atoms: _510  and  _511
REMARK  213  A    between atoms: _511  and  _512
REMARK  214  A    between atoms: _512  and  _513
REMARK  215  A    between atoms: _517  and  _519
REMARK  216  A    between atoms: _519  and  _520
REMARK  217  A    between atoms: _522  and  _524
REMARK  218  A    between atoms: _524  and  _525
REMARK  219  A    between atoms: _524  and  _527
REMARK  220  A    between atoms: _527  and  _528
REMARK  221  A    between atoms: _533  and  _534
REMARK  222  A    between atoms: _536  and  _538
REMARK  223  A    between atoms: _538  and  _539
REMARK  224  A    between atoms: _541  and  _543
REMARK  225  A    between atoms: _543  and  _544
REMARK  226  A    between atoms: _543  and  _546
REMARK  227  A    between atoms: _546  and  _547
REMARK                            x       y       z     vdW  Elec       q    Type
REMARK                         _______ _______ _______ _____ _____    ______ ____
ROOT
ATOM      1  CG  TRP A   1       6.844  20.894  18.583  0.00  0.00    -0.002 A 
ATOM      2  CD2 TRP A   1       5.631  20.794  17.830  0.00  0.00    +0.013 A 
ATOM      3  CE3 TRP A   1       4.371  20.247  18.094  0.00  0.00    +0.001 A 
ATOM      4  CZ3 TRP A   1       3.391  20.328  17.114  0.00  0.00    +0.000 A 
ATOM      5  CH2 TRP A   1       3.646  20.946  15.882  0.00  0.00    +0.001 A 
ATOM      6  CZ2 TRP A   1       4.867  21.483  15.589  0.00  0.00    +0.017 A 
ATOM      7  CE2 TRP A   1       5.862  21.402  16.575  0.00  0.00    +0.056 A 
ATOM      8  NE1 TRP A   1       7.152  21.859  16.572  0.00  0.00    -0.352 N 
ATOM      9  HE1 TRP A   1       7.613  22.361  15.786  0.00  0.00    +0.166 HD
ATOM     10  CD1 TRP A   1       7.743  21.546  17.781  0.00  0.00    +0.068 A 
ENDROOT
BRANCH   1  11
ATOM     11  CB  TRP A   1       7.078  20.381  19.977  0.00  0.00    +0.053 C 
BRANCH  11  12
ATOM     12  CA  TRP A   1       6.866  21.446  21.054  0.00  0.00    +0.137 C 
BRANCH  12  13
ATOM     13  N   TRP A   1       7.943  22.433  20.984  0.00  0.00    -0.239 NA
ATOM     14  H   TRP A   1       8.906  22.113  20.757  0.00  0.00    +0.142 HD
ENDBRANCH  12  13
BRANCH  12  15
ATOM     15  C   TRP A   1       6.769  20.777  22.424  0.00  0.00    +0.224 C 
ATOM     16  O   TRP A   1       7.696  20.832  23.232  0.00  0.00    -0.287 OA
ENDBRANCH  12  15
ENDBRANCH  11  12
ENDBRANCH   1  11
TORSDOF 4
REMARK  Name = ../refined-set-2016/3fv2/3fv2_pocket.pdb
REMARK  227 active torsions:
REMARK  status: ('A' for Active; 'I' for Inactive)
REMARK    1  A    between atoms: _1  and  _3
REMARK    2  A    between atoms: _3  and  _4
REMARK    3  A    between atoms: _3  and  _6
REMARK    4  A    between atoms: _6  and  _7
REMARK    5  A    between atoms: _10  and  _12
REMARK    6  A    between atoms: _12  and  _13
REMARK    7  A    between atoms: _12  and  _15
REMARK    8  A    between atoms: _15  and  _16
REMARK    9  A    between atoms: _19  and  _21
REMARK   10  A    between atoms: _21  and  _22
REMARK   11  A    between atoms: _21  and  _24
REMARK   12  A    between atoms: _24  and  _25
REMARK   13  A    between atoms: _25  and  _26
REMARK   14  A    between atoms: _29  and  _31
REMARK   15  A    between atoms: _31  and  _32
REMARK   16  A    between atoms: _31  and  _34
REMARK   17  A    between atoms: _34  and  _35
REMARK   18  A    between atoms: _35  and  _36
REMARK   19  A    between atoms: _40  and  _41
REMARK   20  A    between atoms: _46  and  _48
REMARK   21  A    between atoms: _48  and  _49
REMARK   22  A    between atoms: _48  and  _51
REMARK   23  A    between atoms: _51  and  _52
REMARK   24  A    between atoms: _57  and  _58
REMARK   25  A    between atoms: _60  and  _62
REMARK   26  A    between atoms: _62  and  _63
REMARK   27  A    between atoms: _62  and  _65
REMARK   28  A    between atoms: _65  and  _66
REMARK   29  A    between atoms: _66  and  _67
REMARK   30  A    between atoms: _67  and  _68
REMARK   31  A    between atoms: _68  and  _69
REMARK   32  A    between atoms: _73  and  _75
REMARK   33  A    between atoms: _75  and  _76
REMARK   34  A    between atoms: _75  and  _78
REMARK   35  A    between atoms: _78  and  _79
REMARK   36  A    between atoms: _84  and  _85
REMARK   37  A    between atoms: _87  and  _89
REMARK   38  A    between atoms: _89  and  _90
REMARK   39  A    between atoms: _92  and  _94
REMARK   40  A    between atoms: _94  and  _95
REMARK   41  A    between atoms: _98  and  _100
REMARK   42  A    between atoms: _100  and  _101
REMARK   43  A    between atoms: _100  and  _103
REMARK   44  A    between atoms: _103  and  _104
REMARK   45  A    between atoms: _114  and  _116
REMARK   46  A    between atoms: _116  and  _117
REMARK   47  A    between atoms: _119  and  _121
REMARK   48  A    between atoms: _121  and  _122
REMARK   49  A    between atoms: _121  and  _124
REMARK   50  A    between atoms: _124  and  _125
REMARK   51  A    between atoms: _125  and  _126
REMARK   52  A    between atoms: _128  and  _130
REMARK   53  A    between atoms: _130  and  _131
REMARK   54  A    between atoms: _130  and  _133
REMARK   55  A    between atoms: _136  and  _138
REMARK   56  A    between atoms: _138  and  _139
REMARK   57  A    between atoms: _143  and  _144
REMARK   58  A    between atoms: _149  and  _151
REMARK   59  A    between atoms: _151  and  _152
REMARK   60  A    between atoms: _151  and  _154
REMARK   61  A    between atoms: _154  and  _155
REMARK   62  A    between atoms: _158  and  _160
REMARK   63  A    between atoms: _160  and  _161
REMARK   64  A    between atoms: _160  and  _163
REMARK   65  A    between atoms: _163  and  _164
REMARK   66  A    between atoms: _167  and  _169
REMARK   67  A    between atoms: _169  and  _170
REMARK   68  A    between atoms: _169  and  _172
REMARK   69  A    between atoms: _172  and  _173
REMARK   70  A    between atoms: _176  and  _178
REMARK   71  A    between atoms: _178  and  _179
REMARK   72  A    between atoms: _178  and  _181
REMARK   73  A    between atoms: _181  and  _182
REMARK   74  A    between atoms: _185  and  _187
REMARK   75  A    between atoms: _187  and  _188
REMARK   76  A    between atoms: _187  and  _190
REMARK   77  A    between atoms: _190  and  _191
REMARK   78  A    between atoms: _191  and  _192
REMARK   79  A    between atoms: _192  and  _193
REMARK   80  A    between atoms: _202  and  _204
REMARK   81  A    between atoms: _204  and  _205
REMARK   82  A    between atoms: _204  and  _207
REMARK   83  A    between atoms: _207  and  _208
REMARK   84  A    between atoms: _214  and  _216
REMARK   85  A    between atoms: _216  and  _217
REMARK   86  A    between atoms: _216  and  _219
REMARK   87  A    between atoms: _219  and  _220
REMARK   88  A    between atoms: _223  and  _225
REMARK   89  A    between atoms: _225  and  _226
REMARK   90  A    between atoms: _228  and  _230
REMARK   91  A    between atoms: _230  and  _231
REMARK   92  A    between atoms: _230  and  _233
REMARK   93  A    between atoms: _233  and  _234
REMARK   94  A    between atoms: _237  and  _239
REMARK   95  A    between atoms: _239  and  _240
REMARK   96  A    between atoms: _239  and  _242
REMARK   97  A    between atoms: _242  and  _243
REMARK   98  A    between atoms: _245  and  _247
REMARK   99  A    between atoms: _247  and  _248
REMARK  100  A    between atoms: _247  and  _250
REMARK  101  A    between atoms: _250  and  _251
REMARK  102  A    between atoms: _254  and  _256
REMARK  103  A    between atoms: _256  and  _257
REMARK  104  A    between atoms: _260  and  _262
REMARK  105  A    between atoms: _262  and  _263
REMARK  106  A    between atoms: _262  and  _265
REMARK  107  A    between atoms: _268  and  _270
REMARK  108  A    between atoms: _270  and  _271
REMARK  109  A    between atoms: _270  and  _273
REMARK  110  A    between atoms: _273  and  _274
REMARK  111  A    between atoms: _274  and  _275
REMARK  112  A    between atoms: _275  and  _276
REMARK  113  A    between atoms: _285  and  _287
REMARK  114  A    between atoms: _287  and  _288
REMARK  115  A    between atoms: _287  and  _290
REMARK  116  A    between atoms: _290  and  _291
REMARK  117  A    between atoms: _294  and  _296
REMARK  118  A    between atoms: _296  and  _297
REMARK  119  A    between atoms: _299  and  _301
REMARK  120  A    between atoms: _301  and  _302
REMARK  121  A    between atoms: _301  and  _304
REMARK  122  A    between atoms: _304  and  _305
REMARK  123  A    between atoms: _307  and  _309
REMARK  124  A    between atoms: _309  and  _310
REMARK  125  A    between atoms: _309  and  _312
REMARK  126  A    between atoms: _312  and  _313
REMARK  127  A    between atoms: _316  and  _318
REMARK  128  A    between atoms: _318  and  _319
REMARK  129  A    between atoms: _318  and  _321
REMARK  130  A    between atoms: _321  and  _322
REMARK  131  A    between atoms: _322  and  _323
REMARK  132  A    between atoms: _325  and  _327
REMARK  133  A    between atoms: _327  and  _328
REMARK  134  A    between atoms: _327  and  _330
REMARK  135  A    between atoms: _330  and  _331
REMARK  136  A    between atoms: _334  and  _336
REMARK  137  A    between atoms: _336  and  _337
REMARK  138  A    between atoms: _336  and  _339
REMARK  139  A    between atoms: _339  and  _340
REMARK  140  A    between atoms: _346  and  _348
REMARK  141  A    between atoms: _348  and  _349
REMARK  142  A    between atoms: _348  and  _351
REMARK  143  A    between atoms: _351  and  _352
REMARK  144  A    between atoms: _358  and  _360
REMARK  145  A    between atoms: _360  and  _361
REMARK  146  A    between atoms: _360  and  _363
REMARK  147  A    between atoms: _366  and  _368
REMARK  148  A    between atoms: _368  and  _369
REMARK  149  A    between atoms: _368  and  _371
REMARK  150  A    between atoms: _371  and  _372
REMARK  151  A    between atoms: _372  and  _373
REMARK  152  A    between atoms: _373  and  _374
REMARK  153  A    between atoms: _383  and  _385
REMARK  154  A    between atoms: _385  and  _386
REMARK  155  A    between atoms: _385  and  _388
REMARK  156  A    between atoms: _388  and  _389
REMARK  157  A    between atoms: _394  and  _396
REMARK  158  A    between atoms: _396  and  _397
REMARK  159  A    between atoms: _396  and  _399
REMARK  160  A    between atoms: _399  and  _400
REMARK  161  A    between atoms: _402  and  _404
REMARK  162  A    between atoms: _404  and  _405
REMARK  163  A    between atoms: _404  and  _407
REMARK  164  A    between atoms: _407  and  _408
REMARK  165  A    between atoms: _411  and  _413
REMARK  166  A    between atoms: _413  and  _414
REMARK  167  A    between atoms: _416  and  _418
REMARK  168  A    between atoms: _418  and  _419
REMARK  169  A    between atoms: _418  and  _421
REMARK  170  A    between atoms: _421  and  _422
REMARK  171  A    between atoms: _425  and  _427
REMARK  172  A    between atoms: _427  and  _428
REMARK  173  A    between atoms: _427  and  _430
REMARK  174  A    between atoms: _430  and  _431
REMARK  175  A    between atoms: _434  and  _436
REMARK  176  A    between atoms: _436  and  _437
REMARK  177  A    between atoms: _436  and  _439
REMARK  178  A    between atoms: _439  and  _440
REMARK  179  A    between atoms: _443  and  _445
REMARK  180  A    between atoms: _445  and  _446
REMARK  181  A    between atoms: _445  and  _448
REMARK  182  A    between atoms: _448  and  _449
REMARK  183  A    between atoms: _449  and  _450
REMARK  184  A    between atoms: _452  and  _454
REMARK  185  A    between atoms: _454  and  _455
REMARK  186  A    between atoms: _454  and  _457
REMARK  187  A    between atoms: _457  and  _458
REMARK  188  A    between atoms: _458  and  _459
REMARK  189  A    between atoms: _462  and  _464
REMARK  190  A    between atoms: _464  and  _465
REMARK  191  A    between atoms: _464  and  _467
REMARK  192  A    between atoms: _467  and  _468
REMARK  193  A    between atoms: _470  and  _472
REMARK  194  A    between atoms: _472  and  _473
REMARK  195  A    between atoms: _472  and  _475
REMARK  196  A    between atoms: _475  and  _476
REMARK  197  A    between atoms: _479  and  _481
REMARK  198  A    between atoms: _481  and  _482
REMARK  199  A    between atoms: _481  and  _484
REMARK  200  A    between atoms: _484  and  _485
REMARK  201  A    between atoms: _487  and  _489
REMARK  202  A    between atoms: _489  and  _490
REMARK  203  A    between atoms: _489  and  _492
REMARK  204  A    between atoms: _492  and  _493
REMARK  205  A    between atoms: _496  and  _498
REMARK  206  A    between atoms: _498  and  _499
REMARK  207  A    between atoms: _498  and  _501
REMARK  208  A    between atoms: _504  and  _506
REMARK  209  A    between atoms: _506  and  _507
REMARK  210  A    between atoms: _506  and  _509
REMARK  211  A    between atoms: _509  and  _510
REMARK  212  A    between atoms: _510  and  _511
REMARK  213  A    between atoms: _511  and  _512
REMARK  214  A    between atoms: _512  and  _513
REMARK  215  A    between atoms: _517  and  _519
REMARK  216  A    between atoms: _519  and  _520
REMARK  217  A    between atoms: _522  and  _524
REMARK  218  A    between atoms: _524  and  _525
REMARK  219  A    between atoms: _524  and  _527
REMARK  220  A    between atoms: _527  and  _528
REMARK  221  A    between atoms: _533  and  _534
REMARK  222  A    between atoms: _536  and  _538
REMARK  223  A    between atoms: _538  and  _539
REMARK  224  A    between atoms: _541  and  _543
REMARK  225  A    between atoms: _543  and  _544
REMARK  226  A    between atoms: _543  and  _546
REMARK  227  A    between atoms: _546  and  _547
REMARK                            x       y       z     vdW  Elec       q    Type
REMARK                         _______ _______ _______ _____ _____    ______ ____
ROOT
ATOM      1  CA  MET A   2       4.168  12.948  21.889  0.00  0.00    +0.149 C 
ENDROOT
BRANCH   1   4
ATOM      2  C   GLY A   1       4.331  14.918  23.324  0.00  0.00    +0.240 C 
ATOM      3  O   GLY A   1       5.569  14.866  23.327  0.00  0.00    -0.274 OA
ATOM      4  N   MET A   2       3.575  14.043  22.668  0.00  0.00    -0.297 N 
ATOM      5  H   MET A   2       2.540  14.136  22.707  0.00  0.00    +0.150 HD
BRANCH   2   6
ATOM      6  CA  GLY A   1       3.583  15.992  24.087  0.00  0.00    +0.169 C 
BRANCH   6   7
ATOM      7  N   GLY A   1       4.337  17.202  24.383  0.00  0.00    -0.236 NA
ATOM      8  H   GLY A   1       4.553  17.438  25.373  0.00  0.00    +0.142 HD
ENDBRANCH   6   7
ENDBRANCH   2   6
ENDBRANCH   1   4
BRANCH   1   9
ATOM      9  C   MET A   2       5.047  13.476  20.769  0.00  0.00    +0.241 C 
ATOM     10  O   MET A   2       6.063  12.869  20.438  0.00  0.00    -0.273 OA
ATOM     11  N   VAL A   3       4.662  14.610  20.185  0.00  0.00    -0.298 N 
ATOM     12  H   VAL A   3       3.789  15.081  20.498  0.00  0.00    +0.150 HD
BRANCH  11  13
ATOM     13  CA  VAL A   3       5.455  15.198  19.109  0.00  0.00    +0.137 C 
BRANCH  13  14
ATOM     14  CB  VAL A   3       4.756  16.418  18.457  0.00  0.00    +0.026 C 
ATOM     15  CG2 VAL A   3       3.404  15.976  17.866  0.00  0.00    +0.002 C 
ATOM     16  CG1 VAL A   3       5.646  17.024  17.366  0.00  0.00    +0.002 C 
ENDBRANCH  13  14
BRANCH  13  17
ATOM     17  C   VAL A   3       6.865  15.533  19.604  0.00  0.00    +0.227 C 
ATOM     18  O   VAL A   3       7.843  15.180  18.947  0.00  0.00    -0.286 OA
ENDBRANCH  13  17
ENDBRANCH  11  13
ENDBRANCH   1   9
BRANCH   1  19
ATOM     19  CB  MET A   2       3.073  12.039  21.322  0.00  0.00    +0.041 C 
BRANCH  19  20
ATOM     20  CG  MET A   2       2.402  11.195  22.393  0.00  0.00    +0.060 C 
BRANCH  20  21
ATOM     21  SD  MET A   2       1.201  10.080  21.678  0.00  0.00    -0.139 S 
ATOM     22  CE  MET A   2      -0.126  11.224  21.355  0.00  0.00    +0.069 C 
ENDBRANCH  20  21
ENDBRANCH  19  20
ENDBRANCH   1  19
TORSDOF 10
REMARK  Name = ../refined-set-2016/3fv2/3fv2_pocket.pdb
REMARK  227 active torsions:
REMARK  status: ('A' for Active; 'I' for Inactive)
REMARK    1  A    between atoms: _1  and  _3
REMARK    2  A    between atoms: _3  and  _4
REMARK    3  A    between atoms: _3  and  _6
REMARK    4  A    between atoms: _6  and  _7
REMARK    5  A    between atoms: _10  and  _12
REMARK    6  A    between atoms: _12  and  _13
REMARK    7  A    between atoms: _12  and  _15
REMARK    8  A    between atoms: _15  and  _16
REMARK    9  A    between atoms: _19  and  _21
REMARK   10  A    between atoms: _21  and  _22
REMARK   11  A    between atoms: _21  and  _24
REMARK   12  A    between atoms: _24  and  _25
REMARK   13  A    between atoms: _25  and  _26
REMARK   14  A    between atoms: _29  and  _31
REMARK   15  A    between atoms: _31  and  _32
REMARK   16  A    between atoms: _31  and  _34
REMARK   17  A    between atoms: _34  and  _35
REMARK   18  A    between atoms: _35  and  _36
REMARK   19  A    between atoms: _40  and  _41
REMARK   20  A    between atoms: _46  and  _48
REMARK   21  A    between atoms: _48  and  _49
REMARK   22  A    between atoms: _48  and  _51
REMARK   23  A    between atoms: _51  and  _52
REMARK   24  A    between atoms: _57  and  _58
REMARK   25  A    between atoms: _60  and  _62
REMARK   26  A    between atoms: _62  and  _63
REMARK   27  A    between atoms: _62  and  _65
REMARK   28  A    between atoms: _65  and  _66
REMARK   29  A    between atoms: _66  and  _67
REMARK   30  A    between atoms: _67  and  _68
REMARK   31  A    between atoms: _68  and  _69
REMARK   32  A    between atoms: _73  and  _75
REMARK   33  A    between atoms: _75  and  _76
REMARK   34  A    between atoms: _75  and  _78
REMARK   35  A    between atoms: _78  and  _79
REMARK   36  A    between atoms: _84  and  _85
REMARK   37  A    between atoms: _87  and  _89
REMARK   38  A    between atoms: _89  and  _90
REMARK   39  A    between atoms: _92  and  _94
REMARK   40  A    between atoms: _94  and  _95
REMARK   41  A    between atoms: _98  and  _100
REMARK   42  A    between atoms: _100  and  _101
REMARK   43  A    between atoms: _100  and  _103
REMARK   44  A    between atoms: _103  and  _104
REMARK   45  A    between atoms: _114  and  _116
REMARK   46  A    between atoms: _116  and  _117
REMARK   47  A    between atoms: _119  and  _121
REMARK   48  A    between atoms: _121  and  _122
REMARK   49  A    between atoms: _121  and  _124
REMARK   50  A    between atoms: _124  and  _125
REMARK   51  A    between atoms: _125  and  _126
REMARK   52  A    between atoms: _128  and  _130
REMARK   53  A    between atoms: _130  and  _131
REMARK   54  A    between atoms: _130  and  _133
REMARK   55  A    between atoms: _136  and  _138
REMARK   56  A    between atoms: _138  and  _139
REMARK   57  A    between atoms: _143  and  _144
REMARK   58  A    between atoms: _149  and  _151
REMARK   59  A    between atoms: _151  and  _152
REMARK   60  A    between atoms: _151  and  _154
REMARK   61  A    between atoms: _154  and  _155
REMARK   62  A    between atoms: _158  and  _160
REMARK   63  A    between atoms: _160  and  _161
REMARK   64  A    between atoms: _160  and  _163
REMARK   65  A    between atoms: _163  and  _164
REMARK   66  A    between atoms: _167  and  _169
REMARK   67  A    between atoms: _169  and  _170
REMARK   68  A    between atoms: _169  and  _172
REMARK   69  A    between atoms: _172  and  _173
REMARK   70  A    between atoms: _176  and  _178
REMARK   71  A    between atoms: _178  and  _179
REMARK   72  A    between atoms: _178  and  _181
REMARK   73  A    between atoms: _181  and  _182
REMARK   74  A    between atoms: _185  and  _187
REMARK   75  A    between atoms: _187  and  _188
REMARK   76  A    between atoms: _187  and  _190
REMARK   77  A    between atoms: _190  and  _191
REMARK   78  A    between atoms: _191  and  _192
REMARK   79  A    between atoms: _192  and  _193
REMARK   80  A    between atoms: _202  and  _204
REMARK   81  A    between atoms: _204  and  _205
REMARK   82  A    between atoms: _204  and  _207
REMARK   83  A    between atoms: _207  and  _208
REMARK   84  A    between atoms: _214  and  _216
REMARK   85  A    between atoms: _216  and  _217
REMARK   86  A    between atoms: _216  and  _219
REMARK   87  A    between atoms: _219  and  _220
REMARK   88  A    between atoms: _223  and  _225
REMARK   89  A    between atoms: _225  and  _226
REMARK   90  A    between atoms: _228  and  _230
REMARK   91  A    between atoms: _230  and  _231
REMARK   92  A    between atoms: _230  and  _233
REMARK   93  A    between atoms: _233  and  _234
REMARK   94  A    between atoms: _237  and  _239
REMARK   95  A    between atoms: _239  and  _240
REMARK   96  A    between atoms: _239  and  _242
REMARK   97  A    between atoms: _242  and  _243
REMARK   98  A    between atoms: _245  and  _247
REMARK   99  A    between atoms: _247  and  _248
REMARK  100  A    between atoms: _247  and  _250
REMARK  101  A    between atoms: _250  and  _251
REMARK  102  A    between atoms: _254  and  _256
REMARK  103  A    between atoms: _256  and  _257
REMARK  104  A    between atoms: _260  and  _262
REMARK  105  A    between atoms: _262  and  _263
REMARK  106  A    between atoms: _262  and  _265
REMARK  107  A    between atoms: _268  and  _270
REMARK  108  A    between atoms: _270  and  _271
REMARK  109  A    between atoms: _270  and  _273
REMARK  110  A    between atoms: _273  and  _274
REMARK  111  A    between atoms: _274  and  _275
REMARK  112  A    between atoms: _275  and  _276
REMARK  113  A    between atoms: _285  and  _287
REMARK  114  A    between atoms: _287  and  _288
REMARK  115  A    between atoms: _287  and  _290
REMARK  116  A    between atoms: _290  and  _291
REMARK  117  A    between atoms: _294  and  _296
REMARK  118  A    between atoms: _296  and  _297
REMARK  119  A    between atoms: _299  and  _301
REMARK  120  A    between atoms: _301  and  _302
REMARK  121  A    between atoms: _301  and  _304
REMARK  122  A    between atoms: _304  and  _305
REMARK  123  A    between atoms: _307  and  _309
REMARK  124  A    between atoms: _309  and  _310
REMARK  125  A    between atoms: _309  and  _312
REMARK  126  A    between atoms: _312  and  _313
REMARK  127  A    between atoms: _316  and  _318
REMARK  128  A    between atoms: _318  and  _319
REMARK  129  A    between atoms: _318  and  _321
REMARK  130  A    between atoms: _321  and  _322
REMARK  131  A    between atoms: _322  and  _323
REMARK  132  A    between atoms: _325  and  _327
REMARK  133  A    between atoms: _327  and  _328
REMARK  134  A    between atoms: _327  and  _330
REMARK  135  A    between atoms: _330  and  _331
REMARK  136  A    between atoms: _334  and  _336
REMARK  137  A    between atoms: _336  and  _337
REMARK  138  A    between atoms: _336  and  _339
REMARK  139  A    between atoms: _339  and  _340
REMARK  140  A    between atoms: _346  and  _348
REMARK  141  A    between atoms: _348  and  _349
REMARK  142  A    between atoms: _348  and  _351
REMARK  143  A    between atoms: _351  and  _352
REMARK  144  A    between atoms: _358  and  _360
REMARK  145  A    between atoms: _360  and  _361
REMARK  146  A    between atoms: _360  and  _363
REMARK  147  A    between atoms: _366  and  _368
REMARK  148  A    between atoms: _368  and  _369
REMARK  149  A    between atoms: _368  and  _371
REMARK  150  A    between atoms: _371  and  _372
REMARK  151  A    between atoms: _372  and  _373
REMARK  152  A    between atoms: _373  and  _374
REMARK  153  A    between atoms: _383  and  _385
REMARK  154  A    between atoms: _385  and  _386
REMARK  155  A    between atoms: _385  and  _388
REMARK  156  A    between atoms: _388  and  _389
REMARK  157  A    between atoms: _394  and  _396
REMARK  158  A    between atoms: _396  and  _397
REMARK  159  A    between atoms: _396  and  _399
REMARK  160  A    between atoms: _399  and  _400
REMARK  161  A    between atoms: _402  and  _404
REMARK  162  A    between atoms: _404  and  _405
REMARK  163  A    between atoms: _404  and  _407
REMARK  164  A    between atoms: _407  and  _408
REMARK  165  A    between atoms: _411  and  _413
REMARK  166  A    between atoms: _413  and  _414
REMARK  167  A    between atoms: _416  and  _418
REMARK  168  A    between atoms: _418  and  _419
REMARK  169  A    between atoms: _418  and  _421
REMARK  170  A    between atoms: _421  and  _422
REMARK  171  A    between atoms: _425  and  _427
REMARK  172  A    between atoms: _427  and  _428
REMARK  173  A    between atoms: _427  and  _430
REMARK  174  A    between atoms: _430  and  _431
REMARK  175  A    between atoms: _434  and  _436
REMARK  176  A    between atoms: _436  and  _437
REMARK  177  A    between atoms: _436  and  _439
REMARK  178  A    between atoms: _439  and  _440
REMARK  179  A    between atoms: _443  and  _445
REMARK  180  A    between atoms: _445  and  _446
REMARK  181  A    between atoms: _445  and  _448
REMARK  182  A    between atoms: _448  and  _449
REMARK  183  A    between atoms: _449  and  _450
REMARK  184  A    between atoms: _452  and  _454
REMARK  185  A    between atoms: _454  and  _455
REMARK  186  A    between atoms: _454  and  _457
REMARK  187  A    between atoms: _457  and  _458
REMARK  188  A    between atoms: _458  and  _459
REMARK  189  A    between atoms: _462  and  _464
REMARK  190  A    between atoms: _464  and  _465
REMARK  191  A    between atoms: _464  and  _467
REMARK  192  A    between atoms: _467  and  _468
REMARK  193  A    between atoms: _470  and  _472
REMARK  194  A    between atoms: _472  and  _473
REMARK  195  A    between atoms: _472  and  _475
REMARK  196  A    between atoms: _475  and  _476
REMARK  197  A    between atoms: _479  and  _481
REMARK  198  A    between atoms: _481  and  _482
REMARK  199  A    between atoms: _481  and  _484
REMARK  200  A    between atoms: _484  and  _485
REMARK  201  A    between atoms: _487  and  _489
REMARK  202  A    between atoms: _489  and  _490
REMARK  203  A    between atoms: _489  and  _492
REMARK  204  A    between atoms: _492  and  _493
REMARK  205  A    between atoms: _496  and  _498
REMARK  206  A    between atoms: _498  and  _499
REMARK  207  A    between atoms: _498  and  _501
REMARK  208  A    between atoms: _504  and  _506
REMARK  209  A    between atoms: _506  and  _507
REMARK  210  A    between atoms: _506  and  _509
REMARK  211  A    between atoms: _509  and  _510
REMARK  212  A    between atoms: _510  and  _511
REMARK  213  A    between atoms: _511  and  _512
REMARK  214  A    between atoms: _512  and  _513
REMARK  215  A    between atoms: _517  and  _519
REMARK  216  A    between atoms: _519  and  _520
REMARK  217  A    between atoms: _522  and  _524
REMARK  218  A    between atoms: _524  and  _525
REMARK  219  A    between atoms: _524  and  _527
REMARK  220  A    between atoms: _527  and  _528
REMARK  221  A    between atoms: _533  and  _534
REMARK  222  A    between atoms: _536  and  _538
REMARK  223  A    between atoms: _538  and  _539
REMARK  224  A    between atoms: _541  and  _543
REMARK  225  A    between atoms: _543  and  _544
REMARK  226  A    between atoms: _543  and  _546
REMARK  227  A    between atoms: _546  and  _547
REMARK                            x       y       z     vdW  Elec       q    Type
REMARK                         _______ _______ _______ _____ _____    ______ ____
ROOT
ATOM      1  CA  THR A   4      -3.524  13.551  13.685  0.00  0.00    +0.176 C 
ENDROOT
BRANCH   1   3
ATOM      2  C   LEU A   3      -2.492  11.732  14.931  0.00  0.00    +0.241 C 
ATOM      3  N   THR A   4      -3.057  12.930  14.915  0.00  0.00    -0.295 N 
ATOM      4  H   THR A   4      -3.171  13.444  15.812  0.00  0.00    +0.150 HD
ATOM      5  O   LEU A   3      -2.235  11.084  13.918  0.00  0.00    -0.273 OA
BRANCH   2   6
ATOM      6  CA  LEU A   3      -2.217  11.160  16.313  0.00  0.00    +0.149 C 
BRANCH   6   9
ATOM      7  C   PRO A   2      -4.208  10.062  17.236  0.00  0.00    +0.241 C 
ATOM      8  O   PRO A   2      -4.657  11.096  17.750  0.00  0.00    -0.273 OA
ATOM      9  N   LEU A   3      -3.101  10.017  16.500  0.00  0.00    -0.297 N 
ATOM     10  H   LEU A   3      -2.854   9.120  16.034  0.00  0.00    +0.150 HD
BRANCH   7  16
ATOM     11  C   ALA A   1      -2.929   7.369  18.009  0.00  0.00    +0.241 C 
ATOM     12  N   PRO A   2      -4.095   7.917  18.404  0.00  0.00    -0.272 N 
ATOM     13  CD  PRO A   2      -4.777   7.778  19.710  0.00  0.00    +0.094 C 
ATOM     14  CG  PRO A   2      -5.914   8.751  19.607  0.00  0.00    +0.024 C 
ATOM     15  CB  PRO A   2      -6.238   8.826  18.160  0.00  0.00    +0.031 C 
ATOM     16  CA  PRO A   2      -4.880   8.708  17.459  0.00  0.00    +0.152 C 
ATOM     17  O   ALA A   1      -2.590   7.318  16.826  0.00  0.00    -0.273 OA
BRANCH  11  18
ATOM     18  CA  ALA A   1      -2.015   6.793  19.084  0.00  0.00    +0.145 C 
ATOM     19  CB  ALA A   1      -1.416   7.934  19.907  0.00  0.00    +0.028 C 
BRANCH  18  20
ATOM     20  N   ALA A   1      -0.961   6.064  18.394  0.00  0.00    -0.238 NA
ATOM     21  H   ALA A   1      -0.914   6.142  17.358  0.00  0.00    +0.142 HD
ENDBRANCH  18  20
ENDBRANCH  11  18
ENDBRANCH   7  16
ENDBRANCH   6   9
BRANCH   6  22
ATOM     22  CB  LEU A   3      -0.757  10.723  16.443  0.00  0.00    +0.029 C 
BRANCH  22  23
ATOM     23  CG  LEU A   3       0.253  11.868  16.368  0.00  0.00    +0.002 C 
ATOM     24  CD2 LEU A   3       0.200  12.799  17.574  0.00  0.00    +0.000 C 
ATOM     25  CD1 LEU A   3       1.676  11.297  16.196  0.00  0.00    +0.000 C 
ENDBRANCH  22  23
ENDBRANCH   6  22
ENDBRANCH   2   6
ENDBRANCH   1   3
BRANCH   1  26
ATOM     26  C   THR A   4      -2.387  14.048  12.805  0.00  0.00    +0.243 C 
ATOM     27  O   THR A   4      -1.477  14.757  13.279  0.00  0.00    -0.273 OA
ATOM     28  N   ILE A   5      -2.447  13.656  11.530  0.00  0.00    -0.297 N 
ATOM     29  H   ILE A   5      -3.223  13.027  11.239  0.00  0.00    +0.150 HD
BRANCH  28  30
ATOM     30  CA  ILE A   5      -1.469  14.072  10.523  0.00  0.00    +0.149 C 
BRANCH  30  31
ATOM     31  C   ILE A   5      -1.780  15.495  10.083  0.00  0.00    +0.241 C 
ATOM     32  N   THR A   6      -0.881  16.422  10.408  0.00  0.00    -0.296 N 
ATOM     33  H   THR A   6      -0.020  16.138  10.918  0.00  0.00    +0.150 HD
ATOM     34  O   ILE A   5      -2.838  15.759   9.508  0.00  0.00    -0.273 OA
BRANCH  32  35
ATOM     35  CA  THR A   6      -1.075  17.829  10.066  0.00  0.00    +0.164 C 
BRANCH  35  36
ATOM     36  C   THR A   6       0.173  18.418   9.423  0.00  0.00    +0.229 C 
ATOM     37  O   THR A   6       1.281  17.902   9.601  0.00  0.00    -0.286 OA
ENDBRANCH  35  36
BRANCH  35  38
ATOM     38  CB  THR A   6      -1.420  18.681  11.305  0.00  0.00    +0.136 C 
ATOM     39  CG2 THR A   6      -2.567  18.060  12.109  0.00  0.00    +0.034 C 
BRANCH  38  40
ATOM     40  OG1 THR A   6      -0.264  18.773  12.136  0.00  0.00    -0.382 OA
ATOM     41  HG1 THR A   6      -0.476  19.318  12.935  0.00  0.00    +0.210 HD
ENDBRANCH  38  40
ENDBRANCH  35  38
ENDBRANCH  32  35
ENDBRANCH  30  31
BRANCH  30  42
ATOM     42  CB  ILE A   5      -1.512  13.142   9.301  0.00  0.00    +0.027 C 
ATOM     43  CG2 ILE A   5      -0.573  13.680   8.219  0.00  0.00    +0.002 C 
BRANCH  42  44
ATOM     44  CG1 ILE A   5      -1.158  11.703   9.697  0.00  0.00    +0.002 C 
ATOM     45  CD1 ILE A   5      -1.594  10.696   8.651  0.00  0.00    +0.000 C 
ENDBRANCH  42  44
ENDBRANCH  30  42
ENDBRANCH  28  30
ENDBRANCH   1  26
BRANCH   1  46
ATOM     46  CB  THR A   4      -4.500  14.678  14.028  0.00  0.00    +0.137 C 
ATOM     47  CG2 THR A   4      -5.123  15.298  12.774  0.00  0.00    +0.034 C 
BRANCH  46  48
ATOM     48  OG1 THR A   4      -5.520  14.123  14.878  0.00  0.00    -0.382 OA
ATOM     49  HG1 THR A   4      -6.169  14.831  15.118  0.00  0.00    +0.210 HD
ENDBRANCH  46  48
ENDBRANCH   1  46
TORSDOF 19
REMARK  Name = ../refined-set-2016/3fv2/3fv2_pocket.pdb
REMARK  227 active torsions:
REMARK  status: ('A' for Active; 'I' for Inactive)
REMARK    1  A    between atoms: _1  and  _3
REMARK    2  A    between atoms: _3  and  _4
REMARK    3  A    between atoms: _3  and  _6
REMARK    4  A    between atoms: _6  and  _7
REMARK    5  A    between atoms: _10  and  _12
REMARK    6  A    between atoms: _12  and  _13
REMARK    7  A    between atoms: _12  and  _15
REMARK    8  A    between atoms: _15  and  _16
REMARK    9  A    between atoms: _19  and  _21
REMARK   10  A    between atoms: _21  and  _22
REMARK   11  A    between atoms: _21  and  _24
REMARK   12  A    between atoms: _24  and  _25
REMARK   13  A    between atoms: _25  and  _26
REMARK   14  A    between atoms: _29  and  _31
REMARK   15  A    between atoms: _31  and  _32
REMARK   16  A    between atoms: _31  and  _34
REMARK   17  A    between atoms: _34  and  _35
REMARK   18  A    between atoms: _35  and  _36
REMARK   19  A    between atoms: _40  and  _41
REMARK   20  A    between atoms: _46  and  _48
REMARK   21  A    between atoms: _48  and  _49
REMARK   22  A    between atoms: _48  and  _51
REMARK   23  A    between atoms: _51  and  _52
REMARK   24  A    between atoms: _57  and  _58
REMARK   25  A    between atoms: _60  and  _62
REMARK   26  A    between atoms: _62  and  _63
REMARK   27  A    between atoms: _62  and  _65
REMARK   28  A    between atoms: _65  and  _66
REMARK   29  A    between atoms: _66  and  _67
REMARK   30  A    between atoms: _67  and  _68
REMARK   31  A    between atoms: _68  and  _69
REMARK   32  A    between atoms: _73  and  _75
REMARK   33  A    between atoms: _75  and  _76
REMARK   34  A    between atoms: _75  and  _78
REMARK   35  A    between atoms: _78  and  _79
REMARK   36  A    between atoms: _84  and  _85
REMARK   37  A    between atoms: _87  and  _89
REMARK   38  A    between atoms: _89  and  _90
REMARK   39  A    between atoms: _92  and  _94
REMARK   40  A    between atoms: _94  and  _95
REMARK   41  A    between atoms: _98  and  _100
REMARK   42  A    between atoms: _100  and  _101
REMARK   43  A    between atoms: _100  and  _103
REMARK   44  A    between atoms: _103  and  _104
REMARK   45  A    between atoms: _114  and  _116
REMARK   46  A    between atoms: _116  and  _117
REMARK   47  A    between atoms: _119  and  _121
REMARK   48  A    between atoms: _121  and  _122
REMARK   49  A    between atoms: _121  and  _124
REMARK   50  A    between atoms: _124  and  _125
REMARK   51  A    between atoms: _125  and  _126
REMARK   52  A    between atoms: _128  and  _130
REMARK   53  A    between atoms: _130  and  _131
REMARK   54  A    between atoms: _130  and  _133
REMARK   55  A    between atoms: _136  and  _138
REMARK   56  A    between atoms: _138  and  _139
REMARK   57  A    between atoms: _143  and  _144
REMARK   58  A    between atoms: _149  and  _151
REMARK   59  A    between atoms: _151  and  _152
REMARK   60  A    between atoms: _151  and  _154
REMARK   61  A    between atoms: _154  and  _155
REMARK   62  A    between atoms: _158  and  _160
REMARK   63  A    between atoms: _160  and  _161
REMARK   64  A    between atoms: _160  and  _163
REMARK   65  A    between atoms: _163  and  _164
REMARK   66  A    between atoms: _167  and  _169
REMARK   67  A    between atoms: _169  and  _170
REMARK   68  A    between atoms: _169  and  _172
REMARK   69  A    between atoms: _172  and  _173
REMARK   70  A    between atoms: _176  and  _178
REMARK   71  A    between atoms: _178  and  _179
REMARK   72  A    between atoms: _178  and  _181
REMARK   73  A    between atoms: _181  and  _182
REMARK   74  A    between atoms: _185  and  _187
REMARK   75  A    between atoms: _187  and  _188
REMARK   76  A    between atoms: _187  and  _190
REMARK   77  A    between atoms: _190  and  _191
REMARK   78  A    between atoms: _191  and  _192
REMARK   79  A    between atoms: _192  and  _193
REMARK   80  A    between atoms: _202  and  _204
REMARK   81  A    between atoms: _204  and  _205
REMARK   82  A    between atoms: _204  and  _207
REMARK   83  A    between atoms: _207  and  _208
REMARK   84  A    between atoms: _214  and  _216
REMARK   85  A    between atoms: _216  and  _217
REMARK   86  A    between atoms: _216  and  _219
REMARK   87  A    between atoms: _219  and  _220
REMARK   88  A    between atoms: _223  and  _225
REMARK   89  A    between atoms: _225  and  _226
REMARK   90  A    between atoms: _228  and  _230
REMARK   91  A    between atoms: _230  and  _231
REMARK   92  A    between atoms: _230  and  _233
REMARK   93  A    between atoms: _233  and  _234
REMARK   94  A    between atoms: _237  and  _239
REMARK   95  A    between atoms: _239  and  _240
REMARK   96  A    between atoms: _239  and  _242
REMARK   97  A    between atoms: _242  and  _243
REMARK   98  A    between atoms: _245  and  _247
REMARK   99  A    between atoms: _247  and  _248
REMARK  100  A    between atoms: _247  and  _250
REMARK  101  A    between atoms: _250  and  _251
REMARK  102  A    between atoms: _254  and  _256
REMARK  103  A    between atoms: _256  and  _257
REMARK  104  A    between atoms: _260  and  _262
REMARK  105  A    between atoms: _262  and  _263
REMARK  106  A    between atoms: _262  and  _265
REMARK  107  A    between atoms: _268  and  _270
REMARK  108  A    between atoms: _270  and  _271
REMARK  109  A    between atoms: _270  and  _273
REMARK  110  A    between atoms: _273  and  _274
REMARK  111  A    between atoms: _274  and  _275
REMARK  112  A    between atoms: _275  and  _276
REMARK  113  A    between atoms: _285  and  _287
REMARK  114  A    between atoms: _287  and  _288
REMARK  115  A    between atoms: _287  and  _290
REMARK  116  A    between atoms: _290  and  _291
REMARK  117  A    between atoms: _294  and  _296
REMARK  118  A    between atoms: _296  and  _297
REMARK  119  A    between atoms: _299  and  _301
REMARK  120  A    between atoms: _301  and  _302
REMARK  121  A    between atoms: _301  and  _304
REMARK  122  A    between atoms: _304  and  _305
REMARK  123  A    between atoms: _307  and  _309
REMARK  124  A    between atoms: _309  and  _310
REMARK  125  A    between atoms: _309  and  _312
REMARK  126  A    between atoms: _312  and  _313
REMARK  127  A    between atoms: _316  and  _318
REMARK  128  A    between atoms: _318  and  _319
REMARK  129  A    between atoms: _318  and  _321
REMARK  130  A    between atoms: _321  and  _322
REMARK  131  A    between atoms: _322  and  _323
REMARK  132  A    between atoms: _325  and  _327
REMARK  133  A    between atoms: _327  and  _328
REMARK  134  A    between atoms: _327  and  _330
REMARK  135  A    between atoms: _330  and  _331
REMARK  136  A    between atoms: _334  and  _336
REMARK  137  A    between atoms: _336  and  _337
REMARK  138  A    between atoms: _336  and  _339
REMARK  139  A    between atoms: _339  and  _340
REMARK  140  A    between atoms: _346  and  _348
REMARK  141  A    between atoms: _348  and  _349
REMARK  142  A    between atoms: _348  and  _351
REMARK  143  A    between atoms: _351  and  _352
REMARK  144  A    between atoms: _358  and  _360
REMARK  145  A    between atoms: _360  and  _361
REMARK  146  A    between atoms: _360  and  _363
REMARK  147  A    between atoms: _366  and  _368
REMARK  148  A    between atoms: _368  and  _369
REMARK  149  A    between atoms: _368  and  _371
REMARK  150  A    between atoms: _371  and  _372
REMARK  151  A    between atoms: _372  and  _373
REMARK  152  A    between atoms: _373  and  _374
REMARK  153  A    between atoms: _383  and  _385
REMARK  154  A    between atoms: _385  and  _386
REMARK  155  A    between atoms: _385  and  _388
REMARK  156  A    between atoms: _388  and  _389
REMARK  157  A    between atoms: _394  and  _396
REMARK  158  A    between atoms: _396  and  _397
REMARK  159  A    between atoms: _396  and  _399
REMARK  160  A    between atoms: _399  and  _400
REMARK  161  A    between atoms: _402  and  _404
REMARK  162  A    between atoms: _404  and  _405
REMARK  163  A    between atoms: _404  and  _407
REMARK  164  A    between atoms: _407  and  _408
REMARK  165  A    between atoms: _411  and  _413
REMARK  166  A    between atoms: _413  and  _414
REMARK  167  A    between atoms: _416  and  _418
REMARK  168  A    between atoms: _418  and  _419
REMARK  169  A    between atoms: _418  and  _421
REMARK  170  A    between atoms: _421  and  _422
REMARK  171  A    between atoms: _425  and  _427
REMARK  172  A    between atoms: _427  and  _428
REMARK  173  A    between atoms: _427  and  _430
REMARK  174  A    between atoms: _430  and  _431
REMARK  175  A    between atoms: _434  and  _436
REMARK  176  A    between atoms: _436  and  _437
REMARK  177  A    between atoms: _436  and  _439
REMARK  178  A    between atoms: _439  and  _440
REMARK  179  A    between atoms: _443  and  _445
REMARK  180  A    between atoms: _445  and  _446
REMARK  181  A    between atoms: _445  and  _448
REMARK  182  A    between atoms: _448  and  _449
REMARK  183  A    between atoms: _449  and  _450
REMARK  184  A    between atoms: _452  and  _454
REMARK  185  A    between atoms: _454  and  _455
REMARK  186  A    between atoms: _454  and  _457
REMARK  187  A    between atoms: _457  and  _458
REMARK  188  A    between atoms: _458  and  _459
REMARK  189  A    between atoms: _462  and  _464
REMARK  190  A    between atoms: _464  and  _465
REMARK  191  A    between atoms: _464  and  _467
REMARK  192  A    between atoms: _467  and  _468
REMARK  193  A    between atoms: _470  and  _472
REMARK  194  A    between atoms: _472  and  _473
REMARK  195  A    between atoms: _472  and  _475
REMARK  196  A    between atoms: _475  and  _476
REMARK  197  A    between atoms: _479  and  _481
REMARK  198  A    between atoms: _481  and  _482
REMARK  199  A    between atoms: _481  and  _484
REMARK  200  A    between atoms: _484  and  _485
REMARK  201  A    between atoms: _487  and  _489
REMARK  202  A    between atoms: _489  and  _490
REMARK  203  A    between atoms: _489  and  _492
REMARK  204  A    between atoms: _492  and  _493
REMARK  205  A    between atoms: _496  and  _498
REMARK  206  A    between atoms: _498  and  _499
REMARK  207  A    between atoms: _498  and  _501
REMARK  208  A    between atoms: _504  and  _506
REMARK  209  A    between atoms: _506  and  _507
REMARK  210  A    between atoms: _506  and  _509
REMARK  211  A    between atoms: _509  and  _510
REMARK  212  A    between atoms: _510  and  _511
REMARK  213  A    between atoms: _511  and  _512
REMARK  214  A    between atoms: _512  and  _513
REMARK  215  A    between atoms: _517  and  _519
REMARK  216  A    between atoms: _519  and  _520
REMARK  217  A    between atoms: _522  and  _524
REMARK  218  A    between atoms: _524  and  _525
REMARK  219  A    between atoms: _524  and  _527
REMARK  220  A    between atoms: _527  and  _528
REMARK  221  A    between atoms: _533  and  _534
REMARK  222  A    between atoms: _536  and  _538
REMARK  223  A    between atoms: _538  and  _539
REMARK  224  A    between atoms: _541  and  _543
REMARK  225  A    between atoms: _543  and  _544
REMARK  226  A    between atoms: _543  and  _546
REMARK  227  A    between atoms: _546  and  _547
REMARK                            x       y       z     vdW  Elec       q    Type
REMARK                         _______ _______ _______ _____ _____    ______ ____
ROOT
ATOM      1  NE  ARG A   1       0.398  17.332  16.175  0.00  0.00    -0.265 N 
ATOM      2  CZ  ARG A   1      -0.629  16.728  16.753  0.00  0.00    +0.342 C 
ATOM      3  NH2 ARG A   1      -0.980  17.085  17.978  0.00  0.00    -0.292 N 
ATOM      4 HH21 ARG A   1      -0.451  17.831  18.474  0.00  0.00    +0.255 HD
ATOM      5 HH22 ARG A   1      -1.784  16.620  18.445  0.00  0.00    +0.255 HD
ATOM      6  NH1 ARG A   1      -1.278  15.750  16.130  0.00  0.00    -0.292 N 
ATOM      7 HH11 ARG A   1      -2.083  15.283  16.593  0.00  0.00    +0.255 HD
ATOM      8 HH12 ARG A   1      -0.981  15.452  15.179  0.00  0.00    +0.255 HD
ATOM      9  HE  ARG A   1       0.878  18.091  16.700  0.00  0.00    +0.259 HD
ENDROOT
BRANCH   1  10
ATOM     10  CD  ARG A   1       0.895  16.997  14.848  0.00  0.00    +0.174 C 
BRANCH  10  11
ATOM     11  CG  ARG A   1       1.986  17.938  14.406  0.00  0.00    +0.045 C 
BRANCH  11  12
ATOM     12  CB  ARG A   1       2.617  17.398  13.143  0.00  0.00    +0.029 C 
BRANCH  12  13
ATOM     13  CA  ARG A   1       3.588  18.387  12.501  0.00  0.00    +0.133 C 
BRANCH  13  14
ATOM     14  N   ARG A   1       2.887  19.523  11.934  0.00  0.00    -0.239 NA
ATOM     15  H   ARG A   1       1.872  19.449  11.721  0.00  0.00    +0.142 HD
ENDBRANCH  13  14
BRANCH  13  16
ATOM     16  C   ARG A   1       4.466  17.682  11.480  0.00  0.00    +0.224 C 
ATOM     17  O   ARG A   1       5.570  17.252  11.809  0.00  0.00    -0.287 OA
ENDBRANCH  13  16
ENDBRANCH  12  13
ENDBRANCH  11  12
ENDBRANCH  10  11
ENDBRANCH   1  10
TORSDOF 6
REMARK  Name = ../refined-set-2016/3fv2/3fv2_pocket.pdb
REMARK  227 active torsions:
REMARK  status: ('A' for Active; 'I' for Inactive)
REMARK    1  A    between atoms: _1  and  _3
REMARK    2  A    between atoms: _3  and  _4
REMARK    3  A    between atoms: _3  and  _6
REMARK    4  A    between atoms: _6  and  _7
REMARK    5  A    between atoms: _10  and  _12
REMARK    6  A    between atoms: _12  and  _13
REMARK    7  A    between atoms: _12  and  _15
REMARK    8  A    between atoms: _15  and  _16
REMARK    9  A    between atoms: _19  and  _21
REMARK   10  A    between atoms: _21  and  _22
REMARK   11  A    between atoms: _21  and  _24
REMARK   12  A    between atoms: _24  and  _25
REMARK   13  A    between atoms: _25  and  _26
REMARK   14  A    between atoms: _29  and  _31
REMARK   15  A    between atoms: _31  and  _32
REMARK   16  A    between atoms: _31  and  _34
REMARK   17  A    between atoms: _34  and  _35
REMARK   18  A    between atoms: _35  and  _36
REMARK   19  A    between atoms: _40  and  _41
REMARK   20  A    between atoms: _46  and  _48
REMARK   21  A    between atoms: _48  and  _49
REMARK   22  A    between atoms: _48  and  _51
REMARK   23  A    between atoms: _51  and  _52
REMARK   24  A    between atoms: _57  and  _58
REMARK   25  A    between atoms: _60  and  _62
REMARK   26  A    between atoms: _62  and  _63
REMARK   27  A    between atoms: _62  and  _65
REMARK   28  A    between atoms: _65  and  _66
REMARK   29  A    between atoms: _66  and  _67
REMARK   30  A    between atoms: _67  and  _68
REMARK   31  A    between atoms: _68  and  _69
REMARK   32  A    between atoms: _73  and  _75
REMARK   33  A    between atoms: _75  and  _76
REMARK   34  A    between atoms: _75  and  _78
REMARK   35  A    between atoms: _78  and  _79
REMARK   36  A    between atoms: _84  and  _85
REMARK   37  A    between atoms: _87  and  _89
REMARK   38  A    between atoms: _89  and  _90
REMARK   39  A    between atoms: _92  and  _94
REMARK   40  A    between atoms: _94  and  _95
REMARK   41  A    between atoms: _98  and  _100
REMARK   42  A    between atoms: _100  and  _101
REMARK   43  A    between atoms: _100  and  _103
REMARK   44  A    between atoms: _103  and  _104
REMARK   45  A    between atoms: _114  and  _116
REMARK   46  A    between atoms: _116  and  _117
REMARK   47  A    between atoms: _119  and  _121
REMARK   48  A    between atoms: _121  and  _122
REMARK   49  A    between atoms: _121  and  _124
REMARK   50  A    between atoms: _124  and  _125
REMARK   51  A    between atoms: _125  and  _126
REMARK   52  A    between atoms: _128  and  _130
REMARK   53  A    between atoms: _130  and  _131
REMARK   54  A    between atoms: _130  and  _133
REMARK   55  A    between atoms: _136  and  _138
REMARK   56  A    between atoms: _138  and  _139
REMARK   57  A    between atoms: _143  and  _144
REMARK   58  A    between atoms: _149  and  _151
REMARK   59  A    between atoms: _151  and  _152
REMARK   60  A    between atoms: _151  and  _154
REMARK   61  A    between atoms: _154  and  _155
REMARK   62  A    between atoms: _158  and  _160
REMARK   63  A    between atoms: _160  and  _161
REMARK   64  A    between atoms: _160  and  _163
REMARK   65  A    between atoms: _163  and  _164
REMARK   66  A    between atoms: _167  and  _169
REMARK   67  A    between atoms: _169  and  _170
REMARK   68  A    between atoms: _169  and  _172
REMARK   69  A    between atoms: _172  and  _173
REMARK   70  A    between atoms: _176  and  _178
REMARK   71  A    between atoms: _178  and  _179
REMARK   72  A    between atoms: _178  and  _181
REMARK   73  A    between atoms: _181  and  _182
REMARK   74  A    between atoms: _185  and  _187
REMARK   75  A    between atoms: _187  and  _188
REMARK   76  A    between atoms: _187  and  _190
REMARK   77  A    between atoms: _190  and  _191
REMARK   78  A    between atoms: _191  and  _192
REMARK   79  A    between atoms: _192  and  _193
REMARK   80  A    between atoms: _202  and  _204
REMARK   81  A    between atoms: _204  and  _205
REMARK   82  A    between atoms: _204  and  _207
REMARK   83  A    between atoms: _207  and  _208
REMARK   84  A    between atoms: _214  and  _216
REMARK   85  A    between atoms: _216  and  _217
REMARK   86  A    between atoms: _216  and  _219
REMARK   87  A    between atoms: _219  and  _220
REMARK   88  A    between atoms: _223  and  _225
REMARK   89  A    between atoms: _225  and  _226
REMARK   90  A    between atoms: _228  and  _230
REMARK   91  A    between atoms: _230  and  _231
REMARK   92  A    between atoms: _230  and  _233
REMARK   93  A    between atoms: _233  and  _234
REMARK   94  A    between atoms: _237  and  _239
REMARK   95  A    between atoms: _239  and  _240
REMARK   96  A    between atoms: _239  and  _242
REMARK   97  A    between atoms: _242  and  _243
REMARK   98  A    between atoms: _245  and  _247
REMARK   99  A    between atoms: _247  and  _248
REMARK  100  A    between atoms: _247  and  _250
REMARK  101  A    between atoms: _250  and  _251
REMARK  102  A    between atoms: _254  and  _256
REMARK  103  A    between atoms: _256  and  _257
REMARK  104  A    between atoms: _260  and  _262
REMARK  105  A    between atoms: _262  and  _263
REMARK  106  A    between atoms: _262  and  _265
REMARK  107  A    between atoms: _268  and  _270
REMARK  108  A    between atoms: _270  and  _271
REMARK  109  A    between atoms: _270  and  _273
REMARK  110  A    between atoms: _273  and  _274
REMARK  111  A    between atoms: _274  and  _275
REMARK  112  A    between atoms: _275  and  _276
REMARK  113  A    between atoms: _285  and  _287
REMARK  114  A    between atoms: _287  and  _288
REMARK  115  A    between atoms: _287  and  _290
REMARK  116  A    between atoms: _290  and  _291
REMARK  117  A    between atoms: _294  and  _296
REMARK  118  A    between atoms: _296  and  _297
REMARK  119  A    between atoms: _299  and  _301
REMARK  120  A    between atoms: _301  and  _302
REMARK  121  A    between atoms: _301  and  _304
REMARK  122  A    between atoms: _304  and  _305
REMARK  123  A    between atoms: _307  and  _309
REMARK  124  A    between atoms: _309  and  _310
REMARK  125  A    between atoms: _309  and  _312
REMARK  126  A    between atoms: _312  and  _313
REMARK  127  A    between atoms: _316  and  _318
REMARK  128  A    between atoms: _318  and  _319
REMARK  129  A    between atoms: _318  and  _321
REMARK  130  A    between atoms: _321  and  _322
REMARK  131  A    between atoms: _322  and  _323
REMARK  132  A    between atoms: _325  and  _327
REMARK  133  A    between atoms: _327  and  _328
REMARK  134  A    between atoms: _327  and  _330
REMARK  135  A    between atoms: _330  and  _331
REMARK  136  A    between atoms: _334  and  _336
REMARK  137  A    between atoms: _336  and  _337
REMARK  138  A    between atoms: _336  and  _339
REMARK  139  A    between atoms: _339  and  _340
REMARK  140  A    between atoms: _346  and  _348
REMARK  141  A    between atoms: _348  and  _349
REMARK  142  A    between atoms: _348  and  _351
REMARK  143  A    between atoms: _351  and  _352
REMARK  144  A    between atoms: _358  and  _360
REMARK  145  A    between atoms: _360  and  _361
REMARK  146  A    between atoms: _360  and  _363
REMARK  147  A    between atoms: _366  and  _368
REMARK  148  A    between atoms: _368  and  _369
REMARK  149  A    between atoms: _368  and  _371
REMARK  150  A    between atoms: _371  and  _372
REMARK  151  A    between atoms: _372  and  _373
REMARK  152  A    between atoms: _373  and  _374
REMARK  153  A    between atoms: _383  and  _385
REMARK  154  A    between atoms: _385  and  _386
REMARK  155  A    between atoms: _385  and  _388
REMARK  156  A    between atoms: _388  and  _389
REMARK  157  A    between atoms: _394  and  _396
REMARK  158  A    between atoms: _396  and  _397
REMARK  159  A    between atoms: _396  and  _399
REMARK  160  A    between atoms: _399  and  _400
REMARK  161  A    between atoms: _402  and  _404
REMARK  162  A    between atoms: _404  and  _405
REMARK  163  A    between atoms: _404  and  _407
REMARK  164  A    between atoms: _407  and  _408
REMARK  165  A    between atoms: _411  and  _413
REMARK  166  A    between atoms: _413  and  _414
REMARK  167  A    between atoms: _416  and  _418
REMARK  168  A    between atoms: _418  and  _419
REMARK  169  A    between atoms: _418  and  _421
REMARK  170  A    between atoms: _421  and  _422
REMARK  171  A    between atoms: _425  and  _427
REMARK  172  A    between atoms: _427  and  _428
REMARK  173  A    between atoms: _427  and  _430
REMARK  174  A    between atoms: _430  and  _431
REMARK  175  A    between atoms: _434  and  _436
REMARK  176  A    between atoms: _436  and  _437
REMARK  177  A    between atoms: _436  and  _439
REMARK  178  A    between atoms: _439  and  _440
REMARK  179  A    between atoms: _443  and  _445
REMARK  180  A    between atoms: _445  and  _446
REMARK  181  A    between atoms: _445  and  _448
REMARK  182  A    between atoms: _448  and  _449
REMARK  183  A    between atoms: _449  and  _450
REMARK  184  A    between atoms: _452  and  _454
REMARK  185  A    between atoms: _454  and  _455
REMARK  186  A    between atoms: _454  and  _457
REMARK  187  A    between atoms: _457  and  _458
REMARK  188  A    between atoms: _458  and  _459
REMARK  189  A    between atoms: _462  and  _464
REMARK  190  A    between atoms: _464  and  _465
REMARK  191  A    between atoms: _464  and  _467
REMARK  192  A    between atoms: _467  and  _468
REMARK  193  A    between atoms: _470  and  _472
REMARK  194  A    between atoms: _472  and  _473
REMARK  195  A    between atoms: _472  and  _475
REMARK  196  A    between atoms: _475  and  _476
REMARK  197  A    between atoms: _479  and  _481
REMARK  198  A    between atoms: _481  and  _482
REMARK  199  A    between atoms: _481  and  _484
REMARK  200  A    between atoms: _484  and  _485
REMARK  201  A    between atoms: _487  and  _489
REMARK  202  A    between atoms: _489  and  _490
REMARK  203  A    between atoms: _489  and  _492
REMARK  204  A    between atoms: _492  and  _493
REMARK  205  A    between atoms: _496  and  _498
REMARK  206  A    between atoms: _498  and  _499
REMARK  207  A    between atoms: _498  and  _501
REMARK  208  A    between atoms: _504  and  _506
REMARK  209  A    between atoms: _506  and  _507
REMARK  210  A    between atoms: _506  and  _509
REMARK  211  A    between atoms: _509  and  _510
REMARK  212  A    between atoms: _510  and  _511
REMARK  213  A    between atoms: _511  and  _512
REMARK  214  A    between atoms: _512  and  _513
REMARK  215  A    between atoms: _517  and  _519
REMARK  216  A    between atoms: _519  and  _520
REMARK  217  A    between atoms: _522  and  _524
REMARK  218  A    between atoms: _524  and  _525
REMARK  219  A    between atoms: _524  and  _527
REMARK  220  A    between atoms: _527  and  _528
REMARK  221  A    between atoms: _533  and  _534
REMARK  222  A    between atoms: _536  and  _538
REMARK  223  A    between atoms: _538  and  _539
REMARK  224  A    between atoms: _541  and  _543
REMARK  225  A    between atoms: _543  and  _544
REMARK  226  A    between atoms: _543  and  _546
REMARK  227  A    between atoms: _546  and  _547
REMARK                            x       y       z     vdW  Elec       q    Type
REMARK                         _______ _______ _______ _____ _____    ______ ____
ROOT
ATOM      1  CB  PHE A   1       2.966  11.178   9.491  0.00  0.00    +0.051 C 
ENDROOT
BRANCH   1   2
ATOM      2  CG  PHE A   1       2.536  12.048  10.628  0.00  0.00    -0.020 A 
ATOM      3  CD2 PHE A   1       1.854  11.504  11.711  0.00  0.00    -0.004 A 
ATOM      4  CE2 PHE A   1       1.396  12.321  12.728  0.00  0.00    -0.000 A 
ATOM      5  CZ  PHE A   1       1.606  13.683  12.641  0.00  0.00    -0.000 A 
ATOM      6  CE1 PHE A   1       2.254  14.235  11.561  0.00  0.00    -0.000 A 
ATOM      7  CD1 PHE A   1       2.703  13.421  10.552  0.00  0.00    -0.004 A 
ENDBRANCH   1   2
BRANCH   1   8
ATOM      8  CA  PHE A   1       4.238  10.368   9.726  0.00  0.00    +0.137 C 
BRANCH   8   9
ATOM      9  N   PHE A   1       5.426  11.210   9.556  0.00  0.00    -0.239 NA
ATOM     10  H   PHE A   1       5.368  12.056   8.953  0.00  0.00    +0.142 HD
ENDBRANCH   8   9
BRANCH   8  11
ATOM     11  C   PHE A   1       4.174   9.226   8.719  0.00  0.00    +0.224 C 
ATOM     12  O   PHE A   1       4.528   9.395   7.553  0.00  0.00    -0.287 OA
ENDBRANCH   8  11
ENDBRANCH   1   8
TORSDOF 4
REMARK  Name = ../refined-set-2016/3fv2/3fv2_pocket.pdb
REMARK  227 active torsions:
REMARK  status: ('A' for Active; 'I' for Inactive)
REMARK    1  A    between atoms: _1  and  _3
REMARK    2  A    between atoms: _3  and  _4
REMARK    3  A    between atoms: _3  and  _6
REMARK    4  A    between atoms: _6  and  _7
REMARK    5  A    between atoms: _10  and  _12
REMARK    6  A    between atoms: _12  and  _13
REMARK    7  A    between atoms: _12  and  _15
REMARK    8  A    between atoms: _15  and  _16
REMARK    9  A    between atoms: _19  and  _21
REMARK   10  A    between atoms: _21  and  _22
REMARK   11  A    between atoms: _21  and  _24
REMARK   12  A    between atoms: _24  and  _25
REMARK   13  A    between atoms: _25  and  _26
REMARK   14  A    between atoms: _29  and  _31
REMARK   15  A    between atoms: _31  and  _32
REMARK   16  A    between atoms: _31  and  _34
REMARK   17  A    between atoms: _34  and  _35
REMARK   18  A    between atoms: _35  and  _36
REMARK   19  A    between atoms: _40  and  _41
REMARK   20  A    between atoms: _46  and  _48
REMARK   21  A    between atoms: _48  and  _49
REMARK   22  A    between atoms: _48  and  _51
REMARK   23  A    between atoms: _51  and  _52
REMARK   24  A    between atoms: _57  and  _58
REMARK   25  A    between atoms: _60  and  _62
REMARK   26  A    between atoms: _62  and  _63
REMARK   27  A    between atoms: _62  and  _65
REMARK   28  A    between atoms: _65  and  _66
REMARK   29  A    between atoms: _66  and  _67
REMARK   30  A    between atoms: _67  and  _68
REMARK   31  A    between atoms: _68  and  _69
REMARK   32  A    between atoms: _73  and  _75
REMARK   33  A    between atoms: _75  and  _76
REMARK   34  A    between atoms: _75  and  _78
REMARK   35  A    between atoms: _78  and  _79
REMARK   36  A    between atoms: _84  and  _85
REMARK   37  A    between atoms: _87  and  _89
REMARK   38  A    between atoms: _89  and  _90
REMARK   39  A    between atoms: _92  and  _94
REMARK   40  A    between atoms: _94  and  _95
REMARK   41  A    between atoms: _98  and  _100
REMARK   42  A    between atoms: _100  and  _101
REMARK   43  A    between atoms: _100  and  _103
REMARK   44  A    between atoms: _103  and  _104
REMARK   45  A    between atoms: _114  and  _116
REMARK   46  A    between atoms: _116  and  _117
REMARK   47  A    between atoms: _119  and  _121
REMARK   48  A    between atoms: _121  and  _122
REMARK   49  A    between atoms: _121  and  _124
REMARK   50  A    between atoms: _124  and  _125
REMARK   51  A    between atoms: _125  and  _126
REMARK   52  A    between atoms: _128  and  _130
REMARK   53  A    between atoms: _130  and  _131
REMARK   54  A    between atoms: _130  and  _133
REMARK   55  A    between atoms: _136  and  _138
REMARK   56  A    between atoms: _138  and  _139
REMARK   57  A    between atoms: _143  and  _144
REMARK   58  A    between atoms: _149  and  _151
REMARK   59  A    between atoms: _151  and  _152
REMARK   60  A    between atoms: _151  and  _154
REMARK   61  A    between atoms: _154  and  _155
REMARK   62  A    between atoms: _158  and  _160
REMARK   63  A    between atoms: _160  and  _161
REMARK   64  A    between atoms: _160  and  _163
REMARK   65  A    between atoms: _163  and  _164
REMARK   66  A    between atoms: _167  and  _169
REMARK   67  A    between atoms: _169  and  _170
REMARK   68  A    between atoms: _169  and  _172
REMARK   69  A    between atoms: _172  and  _173
REMARK   70  A    between atoms: _176  and  _178
REMARK   71  A    between atoms: _178  and  _179
REMARK   72  A    between atoms: _178  and  _181
REMARK   73  A    between atoms: _181  and  _182
REMARK   74  A    between atoms: _185  and  _187
REMARK   75  A    between atoms: _187  and  _188
REMARK   76  A    between atoms: _187  and  _190
REMARK   77  A    between atoms: _190  and  _191
REMARK   78  A    between atoms: _191  and  _192
REMARK   79  A    between atoms: _192  and  _193
REMARK   80  A    between atoms: _202  and  _204
REMARK   81  A    between atoms: _204  and  _205
REMARK   82  A    between atoms: _204  and  _207
REMARK   83  A    between atoms: _207  and  _208
REMARK   84  A    between atoms: _214  and  _216
REMARK   85  A    between atoms: _216  and  _217
REMARK   86  A    between atoms: _216  and  _219
REMARK   87  A    between atoms: _219  and  _220
REMARK   88  A    between atoms: _223  and  _225
REMARK   89  A    between atoms: _225  and  _226
REMARK   90  A    between atoms: _228  and  _230
REMARK   91  A    between atoms: _230  and  _231
REMARK   92  A    between atoms: _230  and  _233
REMARK   93  A    between atoms: _233  and  _234
REMARK   94  A    between atoms: _237  and  _239
REMARK   95  A    between atoms: _239  and  _240
REMARK   96  A    between atoms: _239  and  _242
REMARK   97  A    between atoms: _242  and  _243
REMARK   98  A    between atoms: _245  and  _247
REMARK   99  A    between atoms: _247  and  _248
REMARK  100  A    between atoms: _247  and  _250
REMARK  101  A    between atoms: _250  and  _251
REMARK  102  A    between atoms: _254  and  _256
REMARK  103  A    between atoms: _256  and  _257
REMARK  104  A    between atoms: _260  and  _262
REMARK  105  A    between atoms: _262  and  _263
REMARK  106  A    between atoms: _262  and  _265
REMARK  107  A    between atoms: _268  and  _270
REMARK  108  A    between atoms: _270  and  _271
REMARK  109  A    between atoms: _270  and  _273
REMARK  110  A    between atoms: _273  and  _274
REMARK  111  A    between atoms: _274  and  _275
REMARK  112  A    between atoms: _275  and  _276
REMARK  113  A    between atoms: _285  and  _287
REMARK  114  A    between atoms: _287  and  _288
REMARK  115  A    between atoms: _287  and  _290
REMARK  116  A    between atoms: _290  and  _291
REMARK  117  A    between atoms: _294  and  _296
REMARK  118  A    between atoms: _296  and  _297
REMARK  119  A    between atoms: _299  and  _301
REMARK  120  A    between atoms: _301  and  _302
REMARK  121  A    between atoms: _301  and  _304
REMARK  122  A    between atoms: _304  and  _305
REMARK  123  A    between atoms: _307  and  _309
REMARK  124  A    between atoms: _309  and  _310
REMARK  125  A    between atoms: _309  and  _312
REMARK  126  A    between atoms: _312  and  _313
REMARK  127  A    between atoms: _316  and  _318
REMARK  128  A    between atoms: _318  and  _319
REMARK  129  A    between atoms: _318  and  _321
REMARK  130  A    between atoms: _321  and  _322
REMARK  131  A    between atoms: _322  and  _323
REMARK  132  A    between atoms: _325  and  _327
REMARK  133  A    between atoms: _327  and  _328
REMARK  134  A    between atoms: _327  and  _330
REMARK  135  A    between atoms: _330  and  _331
REMARK  136  A    between atoms: _334  and  _336
REMARK  137  A    between atoms: _336  and  _337
REMARK  138  A    between atoms: _336  and  _339
REMARK  139  A    between atoms: _339  and  _340
REMARK  140  A    between atoms: _346  and  _348
REMARK  141  A    between atoms: _348  and  _349
REMARK  142  A    between atoms: _348  and  _351
REMARK  143  A    between atoms: _351  and  _352
REMARK  144  A    between atoms: _358  and  _360
REMARK  145  A    between atoms: _360  and  _361
REMARK  146  A    between atoms: _360  and  _363
REMARK  147  A    between atoms: _366  and  _368
REMARK  148  A    between atoms: _368  and  _369
REMARK  149  A    between atoms: _368  and  _371
REMARK  150  A    between atoms: _371  and  _372
REMARK  151  A    between atoms: _372  and  _373
REMARK  152  A    between atoms: _373  and  _374
REMARK  153  A    between atoms: _383  and  _385
REMARK  154  A    between atoms: _385  and  _386
REMARK  155  A    between atoms: _385  and  _388
REMARK  156  A    between atoms: _388  and  _389
REMARK  157  A    between atoms: _394  and  _396
REMARK  158  A    between atoms: _396  and  _397
REMARK  159  A    between atoms: _396  and  _399
REMARK  160  A    between atoms: _399  and  _400
REMARK  161  A    between atoms: _402  and  _404
REMARK  162  A    between atoms: _404  and  _405
REMARK  163  A    between atoms: _404  and  _407
REMARK  164  A    between atoms: _407  and  _408
REMARK  165  A    between atoms: _411  and  _413
REMARK  166  A    between atoms: _413  and  _414
REMARK  167  A    between atoms: _416  and  _418
REMARK  168  A    between atoms: _418  and  _419
REMARK  169  A    between atoms: _418  and  _421
REMARK  170  A    between atoms: _421  and  _422
REMARK  171  A    between atoms: _425  and  _427
REMARK  172  A    between atoms: _427  and  _428
REMARK  173  A    between atoms: _427  and  _430
REMARK  174  A    between atoms: _430  and  _431
REMARK  175  A    between atoms: _434  and  _436
REMARK  176  A    between atoms: _436  and  _437
REMARK  177  A    between atoms: _436  and  _439
REMARK  178  A    between atoms: _439  and  _440
REMARK  179  A    between atoms: _443  and  _445
REMARK  180  A    between atoms: _445  and  _446
REMARK  181  A    between atoms: _445  and  _448
REMARK  182  A    between atoms: _448  and  _449
REMARK  183  A    between atoms: _449  and  _450
REMARK  184  A    between atoms: _452  and  _454
REMARK  185  A    between atoms: _454  and  _455
REMARK  186  A    between atoms: _454  and  _457
REMARK  187  A    between atoms: _457  and  _458
REMARK  188  A    between atoms: _458  and  _459
REMARK  189  A    between atoms: _462  and  _464
REMARK  190  A    between atoms: _464  and  _465
REMARK  191  A    between atoms: _464  and  _467
REMARK  192  A    between atoms: _467  and  _468
REMARK  193  A    between atoms: _470  and  _472
REMARK  194  A    between atoms: _472  and  _473
REMARK  195  A    between atoms: _472  and  _475
REMARK  196  A    between atoms: _475  and  _476
REMARK  197  A    between atoms: _479  and  _481
REMARK  198  A    between atoms: _481  and  _482
REMARK  199  A    between atoms: _481  and  _484
REMARK  200  A    between atoms: _484  and  _485
REMARK  201  A    between atoms: _487  and  _489
REMARK  202  A    between atoms: _489  and  _490
REMARK  203  A    between atoms: _489  and  _492
REMARK  204  A    between atoms: _492  and  _493
REMARK  205  A    between atoms: _496  and  _498
REMARK  206  A    between atoms: _498  and  _499
REMARK  207  A    between atoms: _498  and  _501
REMARK  208  A    between atoms: _504  and  _506
REMARK  209  A    between atoms: _506  and  _507
REMARK  210  A    between atoms: _506  and  _509
REMARK  211  A    between atoms: _509  and  _510
REMARK  212  A    between atoms: _510  and  _511
REMARK  213  A    between atoms: _511  and  _512
REMARK  214  A    between atoms: _512  and  _513
REMARK  215  A    between atoms: _517  and  _519
REMARK  216  A    between atoms: _519  and  _520
REMARK  217  A    between atoms: _522  and  _524
REMARK  218  A    between atoms: _524  and  _525
REMARK  219  A    between atoms: _524  and  _527
REMARK  220  A    between atoms: _527  and  _528
REMARK  221  A    between atoms: _533  and  _534
REMARK  222  A    between atoms: _536  and  _538
REMARK  223  A    between atoms: _538  and  _539
REMARK  224  A    between atoms: _541  and  _543
REMARK  225  A    between atoms: _543  and  _544
REMARK  226  A    between atoms: _543  and  _546
REMARK  227  A    between atoms: _546  and  _547
REMARK                            x       y       z     vdW  Elec       q    Type
REMARK                         _______ _______ _______ _____ _____    ______ ____
ROOT
ATOM      1  C   GLY A   2     -13.393  15.818  12.328  0.00  0.00    +0.243 C 
ATOM      2  O   GLY A   2     -14.032  15.106  13.116  0.00  0.00    -0.273 OA
ATOM      3  N   ILE A   3     -13.039  17.073  12.590  0.00  0.00    -0.297 N 
ATOM      4  H   ILE A   3     -12.399  17.567  11.936  0.00  0.00    +0.150 HD
ENDROOT
BRANCH   1   5
ATOM      5  CA  GLY A   2     -12.913  15.269  11.008  0.00  0.00    +0.176 C 
BRANCH   5   7
ATOM      6  C   LEU A   1     -11.988  13.114  10.386  0.00  0.00    +0.238 C 
ATOM      7  N   GLY A   2     -12.890  13.815  11.058  0.00  0.00    -0.296 N 
ATOM      8  H   GLY A   2     -13.597  13.315  11.634  0.00  0.00    +0.150 HD
ATOM      9  O   LEU A   1     -11.256  13.608   9.529  0.00  0.00    -0.274 OA
BRANCH   6  10
ATOM     10  CA  LEU A   1     -11.912  11.634  10.705  0.00  0.00    +0.145 C 
BRANCH  10  11
ATOM     11  N   LEU A   1     -11.007  10.991   9.758  0.00  0.00    -0.238 NA
ATOM     12  H   LEU A   1     -10.406  11.595   9.161  0.00  0.00    +0.142 HD
ENDBRANCH  10  11
BRANCH  10  13
ATOM     13  CB  LEU A   1     -11.427  11.419  12.159  0.00  0.00    +0.026 C 
BRANCH  13  14
ATOM     14  CG  LEU A   1     -10.034  11.785  12.681  0.00  0.00    +0.002 C 
ATOM     15  CD2 LEU A   1      -9.773  13.276  12.675  0.00  0.00    +0.000 C 
ATOM     16  CD1 LEU A   1      -8.904  11.015  11.942  0.00  0.00    +0.000 C 
ENDBRANCH  13  14
ENDBRANCH  10  13
ENDBRANCH   6  10
ENDBRANCH   5   7
ENDBRANCH   1   5
BRANCH   3  17
ATOM     17  CA  ILE A   3     -13.531  17.779  13.782  0.00  0.00    +0.149 C 
BRANCH  17  18
ATOM     18  C   ILE A   3     -15.033  17.997  13.701  0.00  0.00    +0.241 C 
ATOM     19  N   SER A   4     -15.708  17.763  14.826  0.00  0.00    -0.296 N 
ATOM     20  H   SER A   4     -15.223  17.318  15.631  0.00  0.00    +0.150 HD
ATOM     21  O   ILE A   3     -15.573  18.355  12.654  0.00  0.00    -0.273 OA
BRANCH  19  22
ATOM     22  CA  SER A   4     -17.112  18.121  14.945  0.00  0.00    +0.166 C 
BRANCH  22  23
ATOM     23  CB  SER A   4     -17.380  18.567  16.385  0.00  0.00    +0.229 C 
ATOM     24  OG  SER A   4     -16.433  18.860  17.113  0.00  0.00    -0.286 OA
ENDBRANCH  22  23
BRANCH  22  25
ATOM     25  C   SER A   4     -18.008  16.974  14.464  0.00  0.00    +0.165 C 
BRANCH  25  26
ATOM     26  O   SER A   4     -19.370  17.359  14.400  0.00  0.00    -0.380 OA
ATOM     27  H   SER A   4     -19.469  18.116  13.769  0.00  0.00    +0.211 HD
ENDBRANCH  25  26
ENDBRANCH  22  25
ENDBRANCH  19  22
ENDBRANCH  17  18
BRANCH  17  28
ATOM     28  CB  ILE A   3     -12.843  19.136  13.940  0.00  0.00    +0.027 C 
ATOM     29  CG2 ILE A   3     -13.484  19.951  15.070  0.00  0.00    +0.002 C 
BRANCH  28  30
ATOM     30  CG1 ILE A   3     -11.337  18.945  14.189  0.00  0.00    +0.002 C 
ATOM     31  CD1 ILE A   3     -10.556  20.214  13.947  0.00  0.00    +0.000 C 
ENDBRANCH  28  30
ENDBRANCH  17  28
ENDBRANCH   3  17
TORSDOF 14
REMARK  Name = ../refined-set-2016/3fv2/3fv2_pocket.pdb
REMARK  227 active torsions:
REMARK  status: ('A' for Active; 'I' for Inactive)
REMARK    1  A    between atoms: _1  and  _3
REMARK    2  A    between atoms: _3  and  _4
REMARK    3  A    between atoms: _3  and  _6
REMARK    4  A    between atoms: _6  and  _7
REMARK    5  A    between atoms: _10  and  _12
REMARK    6  A    between atoms: _12  and  _13
REMARK    7  A    between atoms: _12  and  _15
REMARK    8  A    between atoms: _15  and  _16
REMARK    9  A    between atoms: _19  and  _21
REMARK   10  A    between atoms: _21  and  _22
REMARK   11  A    between atoms: _21  and  _24
REMARK   12  A    between atoms: _24  and  _25
REMARK   13  A    between atoms: _25  and  _26
REMARK   14  A    between atoms: _29  and  _31
REMARK   15  A    between atoms: _31  and  _32
REMARK   16  A    between atoms: _31  and  _34
REMARK   17  A    between atoms: _34  and  _35
REMARK   18  A    between atoms: _35  and  _36
REMARK   19  A    between atoms: _40  and  _41
REMARK   20  A    between atoms: _46  and  _48
REMARK   21  A    between atoms: _48  and  _49
REMARK   22  A    between atoms: _48  and  _51
REMARK   23  A    between atoms: _51  and  _52
REMARK   24  A    between atoms: _57  and  _58
REMARK   25  A    between atoms: _60  and  _62
REMARK   26  A    between atoms: _62  and  _63
REMARK   27  A    between atoms: _62  and  _65
REMARK   28  A    between atoms: _65  and  _66
REMARK   29  A    between atoms: _66  and  _67
REMARK   30  A    between atoms: _67  and  _68
REMARK   31  A    between atoms: _68  and  _69
REMARK   32  A    between atoms: _73  and  _75
REMARK   33  A    between atoms: _75  and  _76
REMARK   34  A    between atoms: _75  and  _78
REMARK   35  A    between atoms: _78  and  _79
REMARK   36  A    between atoms: _84  and  _85
REMARK   37  A    between atoms: _87  and  _89
REMARK   38  A    between atoms: _89  and  _90
REMARK   39  A    between atoms: _92  and  _94
REMARK   40  A    between atoms: _94  and  _95
REMARK   41  A    between atoms: _98  and  _100
REMARK   42  A    between atoms: _100  and  _101
REMARK   43  A    between atoms: _100  and  _103
REMARK   44  A    between atoms: _103  and  _104
REMARK   45  A    between atoms: _114  and  _116
REMARK   46  A    between atoms: _116  and  _117
REMARK   47  A    between atoms: _119  and  _121
REMARK   48  A    between atoms: _121  and  _122
REMARK   49  A    between atoms: _121  and  _124
REMARK   50  A    between atoms: _124  and  _125
REMARK   51  A    between atoms: _125  and  _126
REMARK   52  A    between atoms: _128  and  _130
REMARK   53  A    between atoms: _130  and  _131
REMARK   54  A    between atoms: _130  and  _133
REMARK   55  A    between atoms: _136  and  _138
REMARK   56  A    between atoms: _138  and  _139
REMARK   57  A    between atoms: _143  and  _144
REMARK   58  A    between atoms: _149  and  _151
REMARK   59  A    between atoms: _151  and  _152
REMARK   60  A    between atoms: _151  and  _154
REMARK   61  A    between atoms: _154  and  _155
REMARK   62  A    between atoms: _158  and  _160
REMARK   63  A    between atoms: _160  and  _161
REMARK   64  A    between atoms: _160  and  _163
REMARK   65  A    between atoms: _163  and  _164
REMARK   66  A    between atoms: _167  and  _169
REMARK   67  A    between atoms: _169  and  _170
REMARK   68  A    between atoms: _169  and  _172
REMARK   69  A    between atoms: _172  and  _173
REMARK   70  A    between atoms: _176  and  _178
REMARK   71  A    between atoms: _178  and  _179
REMARK   72  A    between atoms: _178  and  _181
REMARK   73  A    between atoms: _181  and  _182
REMARK   74  A    between atoms: _185  and  _187
REMARK   75  A    between atoms: _187  and  _188
REMARK   76  A    between atoms: _187  and  _190
REMARK   77  A    between atoms: _190  and  _191
REMARK   78  A    between atoms: _191  and  _192
REMARK   79  A    between atoms: _192  and  _193
REMARK   80  A    between atoms: _202  and  _204
REMARK   81  A    between atoms: _204  and  _205
REMARK   82  A    between atoms: _204  and  _207
REMARK   83  A    between atoms: _207  and  _208
REMARK   84  A    between atoms: _214  and  _216
REMARK   85  A    between atoms: _216  and  _217
REMARK   86  A    between atoms: _216  and  _219
REMARK   87  A    between atoms: _219  and  _220
REMARK   88  A    between atoms: _223  and  _225
REMARK   89  A    between atoms: _225  and  _226
REMARK   90  A    between atoms: _228  and  _230
REMARK   91  A    between atoms: _230  and  _231
REMARK   92  A    between atoms: _230  and  _233
REMARK   93  A    between atoms: _233  and  _234
REMARK   94  A    between atoms: _237  and  _239
REMARK   95  A    between atoms: _239  and  _240
REMARK   96  A    between atoms: _239  and  _242
REMARK   97  A    between atoms: _242  and  _243
REMARK   98  A    between atoms: _245  and  _247
REMARK   99  A    between atoms: _247  and  _248
REMARK  100  A    between atoms: _247  and  _250
REMARK  101  A    between atoms: _250  and  _251
REMARK  102  A    between atoms: _254  and  _256
REMARK  103  A    between atoms: _256  and  _257
REMARK  104  A    between atoms: _260  and  _262
REMARK  105  A    between atoms: _262  and  _263
REMARK  106  A    between atoms: _262  and  _265
REMARK  107  A    between atoms: _268  and  _270
REMARK  108  A    between atoms: _270  and  _271
REMARK  109  A    between atoms: _270  and  _273
REMARK  110  A    between atoms: _273  and  _274
REMARK  111  A    between atoms: _274  and  _275
REMARK  112  A    between atoms: _275  and  _276
REMARK  113  A    between atoms: _285  and  _287
REMARK  114  A    between atoms: _287  and  _288
REMARK  115  A    between atoms: _287  and  _290
REMARK  116  A    between atoms: _290  and  _291
REMARK  117  A    between atoms: _294  and  _296
REMARK  118  A    between atoms: _296  and  _297
REMARK  119  A    between atoms: _299  and  _301
REMARK  120  A    between atoms: _301  and  _302
REMARK  121  A    between atoms: _301  and  _304
REMARK  122  A    between atoms: _304  and  _305
REMARK  123  A    between atoms: _307  and  _309
REMARK  124  A    between atoms: _309  and  _310
REMARK  125  A    between atoms: _309  and  _312
REMARK  126  A    between atoms: _312  and  _313
REMARK  127  A    between atoms: _316  and  _318
REMARK  128  A    between atoms: _318  and  _319
REMARK  129  A    between atoms: _318  and  _321
REMARK  130  A    between atoms: _321  and  _322
REMARK  131  A    between atoms: _322  and  _323
REMARK  132  A    between atoms: _325  and  _327
REMARK  133  A    between atoms: _327  and  _328
REMARK  134  A    between atoms: _327  and  _330
REMARK  135  A    between atoms: _330  and  _331
REMARK  136  A    between atoms: _334  and  _336
REMARK  137  A    between atoms: _336  and  _337
REMARK  138  A    between atoms: _336  and  _339
REMARK  139  A    between atoms: _339  and  _340
REMARK  140  A    between atoms: _346  and  _348
REMARK  141  A    between atoms: _348  and  _349
REMARK  142  A    between atoms: _348  and  _351
REMARK  143  A    between atoms: _351  and  _352
REMARK  144  A    between atoms: _358  and  _360
REMARK  145  A    between atoms: _360  and  _361
REMARK  146  A    between atoms: _360  and  _363
REMARK  147  A    between atoms: _366  and  _368
REMARK  148  A    between atoms: _368  and  _369
REMARK  149  A    between atoms: _368  and  _371
REMARK  150  A    between atoms: _371  and  _372
REMARK  151  A    between atoms: _372  and  _373
REMARK  152  A    between atoms: _373  and  _374
REMARK  153  A    between atoms: _383  and  _385
REMARK  154  A    between atoms: _385  and  _386
REMARK  155  A    between atoms: _385  and  _388
REMARK  156  A    between atoms: _388  and  _389
REMARK  157  A    between atoms: _394  and  _396
REMARK  158  A    between atoms: _396  and  _397
REMARK  159  A    between atoms: _396  and  _399
REMARK  160  A    between atoms: _399  and  _400
REMARK  161  A    between atoms: _402  and  _404
REMARK  162  A    between atoms: _404  and  _405
REMARK  163  A    between atoms: _404  and  _407
REMARK  164  A    between atoms: _407  and  _408
REMARK  165  A    between atoms: _411  and  _413
REMARK  166  A    between atoms: _413  and  _414
REMARK  167  A    between atoms: _416  and  _418
REMARK  168  A    between atoms: _418  and  _419
REMARK  169  A    between atoms: _418  and  _421
REMARK  170  A    between atoms: _421  and  _422
REMARK  171  A    between atoms: _425  and  _427
REMARK  172  A    between atoms: _427  and  _428
REMARK  173  A    between atoms: _427  and  _430
REMARK  174  A    between atoms: _430  and  _431
REMARK  175  A    between atoms: _434  and  _436
REMARK  176  A    between atoms: _436  and  _437
REMARK  177  A    between atoms: _436  and  _439
REMARK  178  A    between atoms: _439  and  _440
REMARK  179  A    between atoms: _443  and  _445
REMARK  180  A    between atoms: _445  and  _446
REMARK  181  A    between atoms: _445  and  _448
REMARK  182  A    between atoms: _448  and  _449
REMARK  183  A    between atoms: _449  and  _450
REMARK  184  A    between atoms: _452  and  _454
REMARK  185  A    between atoms: _454  and  _455
REMARK  186  A    between atoms: _454  and  _457
REMARK  187  A    between atoms: _457  and  _458
REMARK  188  A    between atoms: _458  and  _459
REMARK  189  A    between atoms: _462  and  _464
REMARK  190  A    between atoms: _464  and  _465
REMARK  191  A    between atoms: _464  and  _467
REMARK  192  A    between atoms: _467  and  _468
REMARK  193  A    between atoms: _470  and  _472
REMARK  194  A    between atoms: _472  and  _473
REMARK  195  A    between atoms: _472  and  _475
REMARK  196  A    between atoms: _475  and  _476
REMARK  197  A    between atoms: _479  and  _481
REMARK  198  A    between atoms: _481  and  _482
REMARK  199  A    between atoms: _481  and  _484
REMARK  200  A    between atoms: _484  and  _485
REMARK  201  A    between atoms: _487  and  _489
REMARK  202  A    between atoms: _489  and  _490
REMARK  203  A    between atoms: _489  and  _492
REMARK  204  A    between atoms: _492  and  _493
REMARK  205  A    between atoms: _496  and  _498
REMARK  206  A    between atoms: _498  and  _499
REMARK  207  A    between atoms: _498  and  _501
REMARK  208  A    between atoms: _504  and  _506
REMARK  209  A    between atoms: _506  and  _507
REMARK  210  A    between atoms: _506  and  _509
REMARK  211  A    between atoms: _509  and  _510
REMARK  212  A    between atoms: _510  and  _511
REMARK  213  A    between atoms: _511  and  _512
REMARK  214  A    between atoms: _512  and  _513
REMARK  215  A    between atoms: _517  and  _519
REMARK  216  A    between atoms: _519  and  _520
REMARK  217  A    between atoms: _522  and  _524
REMARK  218  A    between atoms: _524  and  _525
REMARK  219  A    between atoms: _524  and  _527
REMARK  220  A    between atoms: _527  and  _528
REMARK  221  A    between atoms: _533  and  _534
REMARK  222  A    between atoms: _536  and  _538
REMARK  223  A    between atoms: _538  and  _539
REMARK  224  A    between atoms: _541  and  _543
REMARK  225  A    between atoms: _543  and  _544
REMARK  226  A    between atoms: _543  and  _546
REMARK  227  A    between atoms: _546  and  _547
REMARK                            x       y       z     vdW  Elec       q    Type
REMARK                         _______ _______ _______ _____ _____    ______ ____
ROOT
ATOM      1  CA  LEU A   1     -19.993  17.118  21.127  0.00  0.00    +0.133 C 
ENDROOT
BRANCH   1   2
ATOM      2  N   LEU A   1     -19.306  17.969  20.164  0.00  0.00    -0.239 NA
ATOM      3  H   LEU A   1     -18.439  18.456  20.467  0.00  0.00    +0.142 HD
ENDBRANCH   1   2
BRANCH   1   4
ATOM      4  C   LEU A   1     -20.738  17.999  22.113  0.00  0.00    +0.224 C 
ATOM      5  O   LEU A   1     -20.157  18.895  22.719  0.00  0.00    -0.287 OA
ENDBRANCH   1   4
BRANCH   1   6
ATOM      6  CB  LEU A   1     -18.975  16.267  21.893  0.00  0.00    +0.025 C 
BRANCH   6   7
ATOM      7  CG  LEU A   1     -19.592  15.263  22.875  0.00  0.00    +0.002 C 
ATOM      8  CD2 LEU A   1     -18.577  14.794  23.904  0.00  0.00    +0.000 C 
ATOM      9  CD1 LEU A   1     -20.175  14.098  22.106  0.00  0.00    +0.000 C 
ENDBRANCH   6   7
ENDBRANCH   1   6
TORSDOF 4
REMARK  Name = ../refined-set-2016/3fv2/3fv2_pocket.pdb
REMARK  227 active torsions:
REMARK  status: ('A' for Active; 'I' for Inactive)
REMARK    1  A    between atoms: _1  and  _3
REMARK    2  A    between atoms: _3  and  _4
REMARK    3  A    between atoms: _3  and  _6
REMARK    4  A    between atoms: _6  and  _7
REMARK    5  A    between atoms: _10  and  _12
REMARK    6  A    between atoms: _12  and  _13
REMARK    7  A    between atoms: _12  and  _15
REMARK    8  A    between atoms: _15  and  _16
REMARK    9  A    between atoms: _19  and  _21
REMARK   10  A    between atoms: _21  and  _22
REMARK   11  A    between atoms: _21  and  _24
REMARK   12  A    between atoms: _24  and  _25
REMARK   13  A    between atoms: _25  and  _26
REMARK   14  A    between atoms: _29  and  _31
REMARK   15  A    between atoms: _31  and  _32
REMARK   16  A    between atoms: _31  and  _34
REMARK   17  A    between atoms: _34  and  _35
REMARK   18  A    between atoms: _35  and  _36
REMARK   19  A    between atoms: _40  and  _41
REMARK   20  A    between atoms: _46  and  _48
REMARK   21  A    between atoms: _48  and  _49
REMARK   22  A    between atoms: _48  and  _51
REMARK   23  A    between atoms: _51  and  _52
REMARK   24  A    between atoms: _57  and  _58
REMARK   25  A    between atoms: _60  and  _62
REMARK   26  A    between atoms: _62  and  _63
REMARK   27  A    between atoms: _62  and  _65
REMARK   28  A    between atoms: _65  and  _66
REMARK   29  A    between atoms: _66  and  _67
REMARK   30  A    between atoms: _67  and  _68
REMARK   31  A    between atoms: _68  and  _69
REMARK   32  A    between atoms: _73  and  _75
REMARK   33  A    between atoms: _75  and  _76
REMARK   34  A    between atoms: _75  and  _78
REMARK   35  A    between atoms: _78  and  _79
REMARK   36  A    between atoms: _84  and  _85
REMARK   37  A    between atoms: _87  and  _89
REMARK   38  A    between atoms: _89  and  _90
REMARK   39  A    between atoms: _92  and  _94
REMARK   40  A    between atoms: _94  and  _95
REMARK   41  A    between atoms: _98  and  _100
REMARK   42  A    between atoms: _100  and  _101
REMARK   43  A    between atoms: _100  and  _103
REMARK   44  A    between atoms: _103  and  _104
REMARK   45  A    between atoms: _114  and  _116
REMARK   46  A    between atoms: _116  and  _117
REMARK   47  A    between atoms: _119  and  _121
REMARK   48  A    between atoms: _121  and  _122
REMARK   49  A    between atoms: _121  and  _124
REMARK   50  A    between atoms: _124  and  _125
REMARK   51  A    between atoms: _125  and  _126
REMARK   52  A    between atoms: _128  and  _130
REMARK   53  A    between atoms: _130  and  _131
REMARK   54  A    between atoms: _130  and  _133
REMARK   55  A    between atoms: _136  and  _138
REMARK   56  A    between atoms: _138  and  _139
REMARK   57  A    between atoms: _143  and  _144
REMARK   58  A    between atoms: _149  and  _151
REMARK   59  A    between atoms: _151  and  _152
REMARK   60  A    between atoms: _151  and  _154
REMARK   61  A    between atoms: _154  and  _155
REMARK   62  A    between atoms: _158  and  _160
REMARK   63  A    between atoms: _160  and  _161
REMARK   64  A    between atoms: _160  and  _163
REMARK   65  A    between atoms: _163  and  _164
REMARK   66  A    between atoms: _167  and  _169
REMARK   67  A    between atoms: _169  and  _170
REMARK   68  A    between atoms: _169  and  _172
REMARK   69  A    between atoms: _172  and  _173
REMARK   70  A    between atoms: _176  and  _178
REMARK   71  A    between atoms: _178  and  _179
REMARK   72  A    between atoms: _178  and  _181
REMARK   73  A    between atoms: _181  and  _182
REMARK   74  A    between atoms: _185  and  _187
REMARK   75  A    between atoms: _187  and  _188
REMARK   76  A    between atoms: _187  and  _190
REMARK   77  A    between atoms: _190  and  _191
REMARK   78  A    between atoms: _191  and  _192
REMARK   79  A    between atoms: _192  and  _193
REMARK   80  A    between atoms: _202  and  _204
REMARK   81  A    between atoms: _204  and  _205
REMARK   82  A    between atoms: _204  and  _207
REMARK   83  A    between atoms: _207  and  _208
REMARK   84  A    between atoms: _214  and  _216
REMARK   85  A    between atoms: _216  and  _217
REMARK   86  A    between atoms: _216  and  _219
REMARK   87  A    between atoms: _219  and  _220
REMARK   88  A    between atoms: _223  and  _225
REMARK   89  A    between atoms: _225  and  _226
REMARK   90  A    between atoms: _228  and  _230
REMARK   91  A    between atoms: _230  and  _231
REMARK   92  A    between atoms: _230  and  _233
REMARK   93  A    between atoms: _233  and  _234
REMARK   94  A    between atoms: _237  and  _239
REMARK   95  A    between atoms: _239  and  _240
REMARK   96  A    between atoms: _239  and  _242
REMARK   97  A    between atoms: _242  and  _243
REMARK   98  A    between atoms: _245  and  _247
REMARK   99  A    between atoms: _247  and  _248
REMARK  100  A    between atoms: _247  and  _250
REMARK  101  A    between atoms: _250  and  _251
REMARK  102  A    between atoms: _254  and  _256
REMARK  103  A    between atoms: _256  and  _257
REMARK  104  A    between atoms: _260  and  _262
REMARK  105  A    between atoms: _262  and  _263
REMARK  106  A    between atoms: _262  and  _265
REMARK  107  A    between atoms: _268  and  _270
REMARK  108  A    between atoms: _270  and  _271
REMARK  109  A    between atoms: _270  and  _273
REMARK  110  A    between atoms: _273  and  _274
REMARK  111  A    between atoms: _274  and  _275
REMARK  112  A    between atoms: _275  and  _276
REMARK  113  A    between atoms: _285  and  _287
REMARK  114  A    between atoms: _287  and  _288
REMARK  115  A    between atoms: _287  and  _290
REMARK  116  A    between atoms: _290  and  _291
REMARK  117  A    between atoms: _294  and  _296
REMARK  118  A    between atoms: _296  and  _297
REMARK  119  A    between atoms: _299  and  _301
REMARK  120  A    between atoms: _301  and  _302
REMARK  121  A    between atoms: _301  and  _304
REMARK  122  A    between atoms: _304  and  _305
REMARK  123  A    between atoms: _307  and  _309
REMARK  124  A    between atoms: _309  and  _310
REMARK  125  A    between atoms: _309  and  _312
REMARK  126  A    between atoms: _312  and  _313
REMARK  127  A    between atoms: _316  and  _318
REMARK  128  A    between atoms: _318  and  _319
REMARK  129  A    between atoms: _318  and  _321
REMARK  130  A    between atoms: _321  and  _322
REMARK  131  A    between atoms: _322  and  _323
REMARK  132  A    between atoms: _325  and  _327
REMARK  133  A    between atoms: _327  and  _328
REMARK  134  A    between atoms: _327  and  _330
REMARK  135  A    between atoms: _330  and  _331
REMARK  136  A    between atoms: _334  and  _336
REMARK  137  A    between atoms: _336  and  _337
REMARK  138  A    between atoms: _336  and  _339
REMARK  139  A    between atoms: _339  and  _340
REMARK  140  A    between atoms: _346  and  _348
REMARK  141  A    between atoms: _348  and  _349
REMARK  142  A    between atoms: _348  and  _351
REMARK  143  A    between atoms: _351  and  _352
REMARK  144  A    between atoms: _358  and  _360
REMARK  145  A    between atoms: _360  and  _361
REMARK  146  A    between atoms: _360  and  _363
REMARK  147  A    between atoms: _366  and  _368
REMARK  148  A    between atoms: _368  and  _369
REMARK  149  A    between atoms: _368  and  _371
REMARK  150  A    between atoms: _371  and  _372
REMARK  151  A    between atoms: _372  and  _373
REMARK  152  A    between atoms: _373  and  _374
REMARK  153  A    between atoms: _383  and  _385
REMARK  154  A    between atoms: _385  and  _386
REMARK  155  A    between atoms: _385  and  _388
REMARK  156  A    between atoms: _388  and  _389
REMARK  157  A    between atoms: _394  and  _396
REMARK  158  A    between atoms: _396  and  _397
REMARK  159  A    between atoms: _396  and  _399
REMARK  160  A    between atoms: _399  and  _400
REMARK  161  A    between atoms: _402  and  _404
REMARK  162  A    between atoms: _404  and  _405
REMARK  163  A    between atoms: _404  and  _407
REMARK  164  A    between atoms: _407  and  _408
REMARK  165  A    between atoms: _411  and  _413
REMARK  166  A    between atoms: _413  and  _414
REMARK  167  A    between atoms: _416  and  _418
REMARK  168  A    between atoms: _418  and  _419
REMARK  169  A    between atoms: _418  and  _421
REMARK  170  A    between atoms: _421  and  _422
REMARK  171  A    between atoms: _425  and  _427
REMARK  172  A    between atoms: _427  and  _428
REMARK  173  A    between atoms: _427  and  _430
REMARK  174  A    between atoms: _430  and  _431
REMARK  175  A    between atoms: _434  and  _436
REMARK  176  A    between atoms: _436  and  _437
REMARK  177  A    between atoms: _436  and  _439
REMARK  178  A    between atoms: _439  and  _440
REMARK  179  A    between atoms: _443  and  _445
REMARK  180  A    between atoms: _445  and  _446
REMARK  181  A    between atoms: _445  and  _448
REMARK  182  A    between atoms: _448  and  _449
REMARK  183  A    between atoms: _449  and  _450
REMARK  184  A    between atoms: _452  and  _454
REMARK  185  A    between atoms: _454  and  _455
REMARK  186  A    between atoms: _454  and  _457
REMARK  187  A    between atoms: _457  and  _458
REMARK  188  A    between atoms: _458  and  _459
REMARK  189  A    between atoms: _462  and  _464
REMARK  190  A    between atoms: _464  and  _465
REMARK  191  A    between atoms: _464  and  _467
REMARK  192  A    between atoms: _467  and  _468
REMARK  193  A    between atoms: _470  and  _472
REMARK  194  A    between atoms: _472  and  _473
REMARK  195  A    between atoms: _472  and  _475
REMARK  196  A    between atoms: _475  and  _476
REMARK  197  A    between atoms: _479  and  _481
REMARK  198  A    between atoms: _481  and  _482
REMARK  199  A    between atoms: _481  and  _484
REMARK  200  A    between atoms: _484  and  _485
REMARK  201  A    between atoms: _487  and  _489
REMARK  202  A    between atoms: _489  and  _490
REMARK  203  A    between atoms: _489  and  _492
REMARK  204  A    between atoms: _492  and  _493
REMARK  205  A    between atoms: _496  and  _498
REMARK  206  A    between atoms: _498  and  _499
REMARK  207  A    between atoms: _498  and  _501
REMARK  208  A    between atoms: _504  and  _506
REMARK  209  A    between atoms: _506  and  _507
REMARK  210  A    between atoms: _506  and  _509
REMARK  211  A    between atoms: _509  and  _510
REMARK  212  A    between atoms: _510  and  _511
REMARK  213  A    between atoms: _511  and  _512
REMARK  214  A    between atoms: _512  and  _513
REMARK  215  A    between atoms: _517  and  _519
REMARK  216  A    between atoms: _519  and  _520
REMARK  217  A    between atoms: _522  and  _524
REMARK  218  A    between atoms: _524  and  _525
REMARK  219  A    between atoms: _524  and  _527
REMARK  220  A    between atoms: _527  and  _528
REMARK  221  A    between atoms: _533  and  _534
REMARK  222  A    between atoms: _536  and  _538
REMARK  223  A    between atoms: _538  and  _539
REMARK  224  A    between atoms: _541  and  _543
REMARK  225  A    between atoms: _543  and  _544
REMARK  226  A    between atoms: _543  and  _546
REMARK  227  A    between atoms: _546  and  _547
REMARK                            x       y       z     vdW  Elec       q    Type
REMARK                         _______ _______ _______ _____ _____    ______ ____
ROOT
ATOM      1  C   SER A   6      -5.938  20.005  16.530  0.00  0.00    +0.243 C 
ATOM      2  N   THR A   7      -6.941  19.700  17.341  0.00  0.00    -0.295 N 
ATOM      3  H   THR A   7      -6.841  18.928  18.030  0.00  0.00    +0.150 HD
ATOM      4  O   SER A   6      -6.026  20.873  15.667  0.00  0.00    -0.273 OA
ENDROOT
BRANCH   1   5
ATOM      5  CA  SER A   6      -4.628  19.240  16.699  0.00  0.00    +0.178 C 
BRANCH   5   8
ATOM      6  C   GLY A   5      -4.137  19.577  19.059  0.00  0.00    +0.243 C 
ATOM      7  O   GLY A   5      -4.157  20.817  18.956  0.00  0.00    -0.273 OA
ATOM      8  N   SER A   6      -4.408  18.757  18.053  0.00  0.00    -0.295 N 
ATOM      9  H   SER A   6      -4.465  17.735  18.238  0.00  0.00    +0.150 HD
BRANCH   6  10
ATOM     10  CA  GLY A   5      -3.832  18.883  20.371  0.00  0.00    +0.176 C 
BRANCH  10  13
ATOM     11  C   ASP A   4      -2.433  19.987  22.033  0.00  0.00    +0.241 C 
ATOM     12  O   ASP A   4      -1.517  19.174  21.914  0.00  0.00    -0.273 OA
ATOM     13  N   GLY A   5      -3.615  19.846  21.443  0.00  0.00    -0.295 N 
ATOM     14  H   GLY A   5      -4.409  20.441  21.755  0.00  0.00    +0.150 HD
BRANCH  11  15
ATOM     15  CA  ASP A   4      -2.270  21.240  22.886  0.00  0.00    +0.160 C 
BRANCH  15  18
ATOM     16  C   ARG A   3      -4.119  21.020  24.512  0.00  0.00    +0.241 C 
ATOM     17  O   ARG A   3      -3.819  19.865  24.842  0.00  0.00    -0.273 OA
ATOM     18  N   ASP A   4      -3.503  21.702  23.548  0.00  0.00    -0.297 N 
ATOM     19  H   ASP A   4      -3.914  22.609  23.246  0.00  0.00    +0.150 HD
BRANCH  16  20
ATOM     20  CA  ARG A   3      -5.272  21.760  25.181  0.00  0.00    +0.149 C 
BRANCH  20  22
ATOM     21  C   VAL A   2      -7.089  20.494  24.187  0.00  0.00    +0.241 C 
ATOM     22  N   ARG A   3      -6.458  20.907  25.276  0.00  0.00    -0.297 N 
ATOM     23  H   ARG A   3      -6.810  20.621  26.212  0.00  0.00    +0.150 HD
ATOM     24  O   VAL A   2      -6.724  20.800  23.053  0.00  0.00    -0.273 OA
BRANCH  21  25
ATOM     25  CA  VAL A   2      -8.326  19.627  24.420  0.00  0.00    +0.148 C 
BRANCH  25  28
ATOM     26  C   ALA A   1      -9.969  21.322  23.817  0.00  0.00    +0.238 C 
ATOM     27  O   ALA A   1      -9.674  22.008  24.797  0.00  0.00    -0.274 OA
ATOM     28  N   VAL A   2      -9.418  20.132  23.587  0.00  0.00    -0.297 N 
ATOM     29  H   VAL A   2      -9.770  19.550  22.800  0.00  0.00    +0.150 HD
BRANCH  26  30
ATOM     30  CA  ALA A   1     -10.994  21.813  22.818  0.00  0.00    +0.145 C 
ATOM     31  CB  ALA A   1     -10.328  22.202  21.486  0.00  0.00    +0.028 C 
BRANCH  30  32
ATOM     32  N   ALA A   1     -11.675  22.961  23.401  0.00  0.00    -0.238 NA
ATOM     33  H   ALA A   1     -11.177  23.533  24.113  0.00  0.00    +0.142 HD
ENDBRANCH  30  32
ENDBRANCH  26  30
ENDBRANCH  25  28
BRANCH  25  34
ATOM     34  CB  VAL A   2      -8.029  18.151  24.096  0.00  0.00    +0.027 C 
ATOM     35  CG2 VAL A   2      -6.792  17.645  24.834  0.00  0.00    +0.002 C 
ATOM     36  CG1 VAL A   2      -9.254  17.294  24.461  0.00  0.00    +0.002 C 
ENDBRANCH  25  34
ENDBRANCH  21  25
ENDBRANCH  20  22
BRANCH  20  37
ATOM     37  CB  ARG A   3      -4.872  22.265  26.568  0.00  0.00    +0.033 C 
BRANCH  37  38
ATOM     38  CG  ARG A   3      -3.695  23.239  26.545  0.00  0.00    +0.045 C 
BRANCH  38  39
ATOM     39  CD  ARG A   3      -3.290  23.632  27.956  0.00  0.00    +0.174 C 
BRANCH  39  40
ATOM     40  NE  ARG A   3      -4.427  24.080  28.766  0.00  0.00    -0.265 N 
ATOM     41  HE  ARG A   3      -4.986  23.350  29.253  0.00  0.00    +0.259 HD
ATOM     42  CZ  ARG A   3      -4.800  25.348  28.927  0.00  0.00    +0.342 C 
ATOM     43  NH2 ARG A   3      -5.850  25.630  29.695  0.00  0.00    -0.292 N 
ATOM     44 HH21 ARG A   3      -6.372  24.863  30.164  0.00  0.00    +0.255 HD
ATOM     45 HH22 ARG A   3      -6.148  26.618  29.826  0.00  0.00    +0.255 HD
ATOM     46  NH1 ARG A   3      -4.124  26.327  28.345  0.00  0.00    -0.292 N 
ATOM     47 HH11 ARG A   3      -4.422  27.315  28.476  0.00  0.00    +0.255 HD
ATOM     48 HH12 ARG A   3      -3.295  26.108  27.757  0.00  0.00    +0.255 HD
ENDBRANCH  39  40
ENDBRANCH  38  39
ENDBRANCH  37  38
ENDBRANCH  20  37
ENDBRANCH  16  20
ENDBRANCH  15  18
BRANCH  15  49
ATOM     49  CB  ASP A   4      -1.102  21.146  23.883  0.00  0.00    +0.143 C 
BRANCH  49  50
ATOM     50  CG  ASP A   4      -0.684  22.511  24.391  0.00  0.00    +0.367 C 
ATOM     51  OD2 ASP A   4      -0.042  22.576  25.454  0.00  0.00    -0.246 OA
ATOM     52  OD1 ASP A   4      -1.022  23.528  23.740  0.00  0.00    -0.246 OA
ENDBRANCH  49  50
ENDBRANCH  15  49
ENDBRANCH  11  15
ENDBRANCH  10  13
ENDBRANCH   6  10
ENDBRANCH   5   8
BRANCH   5  53
ATOM     53  CB  SER A   6      -4.528  18.080  15.694  0.00  0.00    +0.166 C 
BRANCH  53  54
ATOM     54  OG  SER A   6      -5.522  17.097  15.935  0.00  0.00    -0.380 OA
ATOM     55  H   SER A   6      -6.419  17.509  15.852  0.00  0.00    +0.211 HD
ENDBRANCH  53  54
ENDBRANCH   5  53
ENDBRANCH   1   5
BRANCH   2  56
ATOM     56  CA  THR A   7      -8.195  20.461  17.259  0.00  0.00    +0.176 C 
BRANCH  56  57
ATOM     57  C   THR A   7      -7.959  21.895  17.723  0.00  0.00    +0.243 C 
ATOM     58  N   MET A   8      -7.268  22.055  18.848  0.00  0.00    -0.297 N 
ATOM     59  H   MET A   8      -6.994  21.218  19.401  0.00  0.00    +0.150 HD
ATOM     60  O   THR A   7      -8.360  22.846  17.059  0.00  0.00    -0.273 OA
BRANCH  58  61
ATOM     61  CA  MET A   8      -6.883  23.390  19.326  0.00  0.00    +0.149 C 
BRANCH  61  62
ATOM     62  C   MET A   8      -6.093  24.124  18.253  0.00  0.00    +0.241 C 
ATOM     63  O   MET A   8      -6.380  25.278  17.929  0.00  0.00    -0.273 OA
ATOM     64  N   THR A   9      -5.118  23.428  17.671  0.00  0.00    -0.295 N 
ATOM     65  H   THR A   9      -4.952  22.440  17.950  0.00  0.00    +0.150 HD
BRANCH  64  66
ATOM     66  CA  THR A   9      -4.278  24.041  16.642  0.00  0.00    +0.176 C 
BRANCH  66  67
ATOM     67  C   THR A   9      -5.071  24.417  15.378  0.00  0.00    +0.243 C 
ATOM     68  N   PHE A  10      -6.077  23.614  15.018  0.00  0.00    -0.297 N 
ATOM     69  H   PHE A  10      -6.250  22.739  15.553  0.00  0.00    +0.150 HD
ATOM     70  O   THR A   9      -4.784  25.447  14.756  0.00  0.00    -0.273 OA
BRANCH  68  71
ATOM     71  CA  PHE A  10      -6.935  23.946  13.888  0.00  0.00    +0.153 C 
BRANCH  71  72
ATOM     72  C   PHE A  10      -7.543  25.325  14.096  0.00  0.00    +0.241 C 
ATOM     73  N   PHE A  11      -8.082  25.546  15.286  0.00  0.00    -0.298 N 
ATOM     74  H   PHE A  11      -8.062  24.804  16.014  0.00  0.00    +0.150 HD
ATOM     75  O   PHE A  10      -7.542  26.162  13.187  0.00  0.00    -0.273 OA
BRANCH  73  76
ATOM     76  CA  PHE A  11      -8.704  26.835  15.570  0.00  0.00    +0.141 C 
BRANCH  76  77
ATOM     77  C   PHE A  11      -7.680  27.957  15.630  0.00  0.00    +0.227 C 
ATOM     78  O   PHE A  11      -7.916  29.033  15.080  0.00  0.00    -0.286 OA
ENDBRANCH  76  77
BRANCH  76  79
ATOM     79  CB  PHE A  11      -9.583  26.741  16.821  0.00  0.00    +0.054 C 
BRANCH  79  80
ATOM     80  CG  PHE A  11     -10.856  26.032  16.554  0.00  0.00    -0.020 A 
ATOM     81  CD2 PHE A  11     -10.994  24.680  16.858  0.00  0.00    -0.004 A 
ATOM     82  CE2 PHE A  11     -12.169  23.996  16.558  0.00  0.00    -0.000 A 
ATOM     83  CZ  PHE A  11     -13.221  24.664  15.913  0.00  0.00    -0.000 A 
ATOM     84  CE1 PHE A  11     -13.086  26.012  15.591  0.00  0.00    -0.000 A 
ATOM     85  CD1 PHE A  11     -11.903  26.692  15.895  0.00  0.00    -0.004 A 
ENDBRANCH  79  80
ENDBRANCH  76  79
ENDBRANCH  73  76
ENDBRANCH  71  72
BRANCH  71  86
ATOM     86  CB  PHE A  10      -8.050  22.905  13.736  0.00  0.00    +0.055 C 
BRANCH  86  87
ATOM     87  CG  PHE A  10      -9.115  23.291  12.731  0.00  0.00    -0.020 A 
ATOM     88  CD2 PHE A  10     -10.246  24.005  13.125  0.00  0.00    -0.004 A 
ATOM     89  CE2 PHE A  10     -11.228  24.361  12.191  0.00  0.00    -0.000 A 
ATOM     90  CZ  PHE A  10     -11.086  23.995  10.880  0.00  0.00    -0.000 A 
ATOM     91  CE1 PHE A  10      -9.964  23.266  10.481  0.00  0.00    -0.000 A 
ATOM     92  CD1 PHE A  10      -8.997  22.918  11.400  0.00  0.00    -0.004 A 
ENDBRANCH  86  87
ENDBRANCH  71  86
ENDBRANCH  68  71
ENDBRANCH  66  67
BRANCH  66  93
ATOM     93  CB  THR A   9      -3.083  23.129  16.332  0.00  0.00    +0.137 C 
ATOM     94  CG2 THR A   9      -2.172  23.739  15.276  0.00  0.00    +0.034 C 
BRANCH  93  95
ATOM     95  OG1 THR A   9      -2.339  22.937  17.544  0.00  0.00    -0.382 OA
ATOM     96  HG1 THR A   9      -1.562  22.350  17.364  0.00  0.00    +0.210 HD
ENDBRANCH  93  95
ENDBRANCH  66  93
ENDBRANCH  64  66
ENDBRANCH  61  62
BRANCH  61  97
ATOM     97  CB  MET A   8      -6.044  23.278  20.597  0.00  0.00    +0.041 C 
BRANCH  97  98
ATOM     98  CG  MET A   8      -5.747  24.626  21.224  0.00  0.00    +0.060 C 
BRANCH  98  99
ATOM     99  SD  MET A   8      -4.278  24.690  22.249  0.00  0.00    -0.139 S 
ATOM    100  CE  MET A   8      -2.971  24.548  21.022  0.00  0.00    +0.069 C 
ENDBRANCH  98  99
ENDBRANCH  97  98
ENDBRANCH  61  97
ENDBRANCH  58  61
ENDBRANCH  56  57
BRANCH  56 101
ATOM    101  CB  THR A   7      -9.311  19.751  18.041  0.00  0.00    +0.137 C 
ATOM    102  CG2 THR A   7     -10.624  20.527  17.995  0.00  0.00    +0.034 C 
BRANCH 101 103
ATOM    103  OG1 THR A   7      -9.510  18.456  17.475  0.00  0.00    -0.382 OA
ATOM    104  HG1 THR A   7      -8.670  17.937  17.539  0.00  0.00    +0.210 HD
ENDBRANCH 101 103
ENDBRANCH  56 101
ENDBRANCH   2  56
TORSDOF 42
REMARK  Name = ../refined-set-2016/3fv2/3fv2_pocket.pdb
REMARK  227 active torsions:
REMARK  status: ('A' for Active; 'I' for Inactive)
REMARK    1  A    between atoms: _1  and  _3
REMARK    2  A    between atoms: _3  and  _4
REMARK    3  A    between atoms: _3  and  _6
REMARK    4  A    between atoms: _6  and  _7
REMARK    5  A    between atoms: _10  and  _12
REMARK    6  A    between atoms: _12  and  _13
REMARK    7  A    between atoms: _12  and  _15
REMARK    8  A    between atoms: _15  and  _16
REMARK    9  A    between atoms: _19  and  _21
REMARK   10  A    between atoms: _21  and  _22
REMARK   11  A    between atoms: _21  and  _24
REMARK   12  A    between atoms: _24  and  _25
REMARK   13  A    between atoms: _25  and  _26
REMARK   14  A    between atoms: _29  and  _31
REMARK   15  A    between atoms: _31  and  _32
REMARK   16  A    between atoms: _31  and  _34
REMARK   17  A    between atoms: _34  and  _35
REMARK   18  A    between atoms: _35  and  _36
REMARK   19  A    between atoms: _40  and  _41
REMARK   20  A    between atoms: _46  and  _48
REMARK   21  A    between atoms: _48  and  _49
REMARK   22  A    between atoms: _48  and  _51
REMARK   23  A    between atoms: _51  and  _52
REMARK   24  A    between atoms: _57  and  _58
REMARK   25  A    between atoms: _60  and  _62
REMARK   26  A    between atoms: _62  and  _63
REMARK   27  A    between atoms: _62  and  _65
REMARK   28  A    between atoms: _65  and  _66
REMARK   29  A    between atoms: _66  and  _67
REMARK   30  A    between atoms: _67  and  _68
REMARK   31  A    between atoms: _68  and  _69
REMARK   32  A    between atoms: _73  and  _75
REMARK   33  A    between atoms: _75  and  _76
REMARK   34  A    between atoms: _75  and  _78
REMARK   35  A    between atoms: _78  and  _79
REMARK   36  A    between atoms: _84  and  _85
REMARK   37  A    between atoms: _87  and  _89
REMARK   38  A    between atoms: _89  and  _90
REMARK   39  A    between atoms: _92  and  _94
REMARK   40  A    between atoms: _94  and  _95
REMARK   41  A    between atoms: _98  and  _100
REMARK   42  A    between atoms: _100  and  _101
REMARK   43  A    between atoms: _100  and  _103
REMARK   44  A    between atoms: _103  and  _104
REMARK   45  A    between atoms: _114  and  _116
REMARK   46  A    between atoms: _116  and  _117
REMARK   47  A    between atoms: _119  and  _121
REMARK   48  A    between atoms: _121  and  _122
REMARK   49  A    between atoms: _121  and  _124
REMARK   50  A    between atoms: _124  and  _125
REMARK   51  A    between atoms: _125  and  _126
REMARK   52  A    between atoms: _128  and  _130
REMARK   53  A    between atoms: _130  and  _131
REMARK   54  A    between atoms: _130  and  _133
REMARK   55  A    between atoms: _136  and  _138
REMARK   56  A    between atoms: _138  and  _139
REMARK   57  A    between atoms: _143  and  _144
REMARK   58  A    between atoms: _149  and  _151
REMARK   59  A    between atoms: _151  and  _152
REMARK   60  A    between atoms: _151  and  _154
REMARK   61  A    between atoms: _154  and  _155
REMARK   62  A    between atoms: _158  and  _160
REMARK   63  A    between atoms: _160  and  _161
REMARK   64  A    between atoms: _160  and  _163
REMARK   65  A    between atoms: _163  and  _164
REMARK   66  A    between atoms: _167  and  _169
REMARK   67  A    between atoms: _169  and  _170
REMARK   68  A    between atoms: _169  and  _172
REMARK   69  A    between atoms: _172  and  _173
REMARK   70  A    between atoms: _176  and  _178
REMARK   71  A    between atoms: _178  and  _179
REMARK   72  A    between atoms: _178  and  _181
REMARK   73  A    between atoms: _181  and  _182
REMARK   74  A    between atoms: _185  and  _187
REMARK   75  A    between atoms: _187  and  _188
REMARK   76  A    between atoms: _187  and  _190
REMARK   77  A    between atoms: _190  and  _191
REMARK   78  A    between atoms: _191  and  _192
REMARK   79  A    between atoms: _192  and  _193
REMARK   80  A    between atoms: _202  and  _204
REMARK   81  A    between atoms: _204  and  _205
REMARK   82  A    between atoms: _204  and  _207
REMARK   83  A    between atoms: _207  and  _208
REMARK   84  A    between atoms: _214  and  _216
REMARK   85  A    between atoms: _216  and  _217
REMARK   86  A    between atoms: _216  and  _219
REMARK   87  A    between atoms: _219  and  _220
REMARK   88  A    between atoms: _223  and  _225
REMARK   89  A    between atoms: _225  and  _226
REMARK   90  A    between atoms: _228  and  _230
REMARK   91  A    between atoms: _230  and  _231
REMARK   92  A    between atoms: _230  and  _233
REMARK   93  A    between atoms: _233  and  _234
REMARK   94  A    between atoms: _237  and  _239
REMARK   95  A    between atoms: _239  and  _240
REMARK   96  A    between atoms: _239  and  _242
REMARK   97  A    between atoms: _242  and  _243
REMARK   98  A    between atoms: _245  and  _247
REMARK   99  A    between atoms: _247  and  _248
REMARK  100  A    between atoms: _247  and  _250
REMARK  101  A    between atoms: _250  and  _251
REMARK  102  A    between atoms: _254  and  _256
REMARK  103  A    between atoms: _256  and  _257
REMARK  104  A    between atoms: _260  and  _262
REMARK  105  A    between atoms: _262  and  _263
REMARK  106  A    between atoms: _262  and  _265
REMARK  107  A    between atoms: _268  and  _270
REMARK  108  A    between atoms: _270  and  _271
REMARK  109  A    between atoms: _270  and  _273
REMARK  110  A    between atoms: _273  and  _274
REMARK  111  A    between atoms: _274  and  _275
REMARK  112  A    between atoms: _275  and  _276
REMARK  113  A    between atoms: _285  and  _287
REMARK  114  A    between atoms: _287  and  _288
REMARK  115  A    between atoms: _287  and  _290
REMARK  116  A    between atoms: _290  and  _291
REMARK  117  A    between atoms: _294  and  _296
REMARK  118  A    between atoms: _296  and  _297
REMARK  119  A    between atoms: _299  and  _301
REMARK  120  A    between atoms: _301  and  _302
REMARK  121  A    between atoms: _301  and  _304
REMARK  122  A    between atoms: _304  and  _305
REMARK  123  A    between atoms: _307  and  _309
REMARK  124  A    between atoms: _309  and  _310
REMARK  125  A    between atoms: _309  and  _312
REMARK  126  A    between atoms: _312  and  _313
REMARK  127  A    between atoms: _316  and  _318
REMARK  128  A    between atoms: _318  and  _319
REMARK  129  A    between atoms: _318  and  _321
REMARK  130  A    between atoms: _321  and  _322
REMARK  131  A    between atoms: _322  and  _323
REMARK  132  A    between atoms: _325  and  _327
REMARK  133  A    between atoms: _327  and  _328
REMARK  134  A    between atoms: _327  and  _330
REMARK  135  A    between atoms: _330  and  _331
REMARK  136  A    between atoms: _334  and  _336
REMARK  137  A    between atoms: _336  and  _337
REMARK  138  A    between atoms: _336  and  _339
REMARK  139  A    between atoms: _339  and  _340
REMARK  140  A    between atoms: _346  and  _348
REMARK  141  A    between atoms: _348  and  _349
REMARK  142  A    between atoms: _348  and  _351
REMARK  143  A    between atoms: _351  and  _352
REMARK  144  A    between atoms: _358  and  _360
REMARK  145  A    between atoms: _360  and  _361
REMARK  146  A    between atoms: _360  and  _363
REMARK  147  A    between atoms: _366  and  _368
REMARK  148  A    between atoms: _368  and  _369
REMARK  149  A    between atoms: _368  and  _371
REMARK  150  A    between atoms: _371  and  _372
REMARK  151  A    between atoms: _372  and  _373
REMARK  152  A    between atoms: _373  and  _374
REMARK  153  A    between atoms: _383  and  _385
REMARK  154  A    between atoms: _385  and  _386
REMARK  155  A    between atoms: _385  and  _388
REMARK  156  A    between atoms: _388  and  _389
REMARK  157  A    between atoms: _394  and  _396
REMARK  158  A    between atoms: _396  and  _397
REMARK  159  A    between atoms: _396  and  _399
REMARK  160  A    between atoms: _399  and  _400
REMARK  161  A    between atoms: _402  and  _404
REMARK  162  A    between atoms: _404  and  _405
REMARK  163  A    between atoms: _404  and  _407
REMARK  164  A    between atoms: _407  and  _408
REMARK  165  A    between atoms: _411  and  _413
REMARK  166  A    between atoms: _413  and  _414
REMARK  167  A    between atoms: _416  and  _418
REMARK  168  A    between atoms: _418  and  _419
REMARK  169  A    between atoms: _418  and  _421
REMARK  170  A    between atoms: _421  and  _422
REMARK  171  A    between atoms: _425  and  _427
REMARK  172  A    between atoms: _427  and  _428
REMARK  173  A    between atoms: _427  and  _430
REMARK  174  A    between atoms: _430  and  _431
REMARK  175  A    between atoms: _434  and  _436
REMARK  176  A    between atoms: _436  and  _437
REMARK  177  A    between atoms: _436  and  _439
REMARK  178  A    between atoms: _439  and  _440
REMARK  179  A    between atoms: _443  and  _445
REMARK  180  A    between atoms: _445  and  _446
REMARK  181  A    between atoms: _445  and  _448
REMARK  182  A    between atoms: _448  and  _449
REMARK  183  A    between atoms: _449  and  _450
REMARK  184  A    between atoms: _452  and  _454
REMARK  185  A    between atoms: _454  and  _455
REMARK  186  A    between atoms: _454  and  _457
REMARK  187  A    between atoms: _457  and  _458
REMARK  188  A    between atoms: _458  and  _459
REMARK  189  A    between atoms: _462  and  _464
REMARK  190  A    between atoms: _464  and  _465
REMARK  191  A    between atoms: _464  and  _467
REMARK  192  A    between atoms: _467  and  _468
REMARK  193  A    between atoms: _470  and  _472
REMARK  194  A    between atoms: _472  and  _473
REMARK  195  A    between atoms: _472  and  _475
REMARK  196  A    between atoms: _475  and  _476
REMARK  197  A    between atoms: _479  and  _481
REMARK  198  A    between atoms: _481  and  _482
REMARK  199  A    between atoms: _481  and  _484
REMARK  200  A    between atoms: _484  and  _485
REMARK  201  A    between atoms: _487  and  _489
REMARK  202  A    between atoms: _489  and  _490
REMARK  203  A    between atoms: _489  and  _492
REMARK  204  A    between atoms: _492  and  _493
REMARK  205  A    between atoms: _496  and  _498
REMARK  206  A    between atoms: _498  and  _499
REMARK  207  A    between atoms: _498  and  _501
REMARK  208  A    between atoms: _504  and  _506
REMARK  209  A    between atoms: _506  and  _507
REMARK  210  A    between atoms: _506  and  _509
REMARK  211  A    between atoms: _509  and  _510
REMARK  212  A    between atoms: _510  and  _511
REMARK  213  A    between atoms: _511  and  _512
REMARK  214  A    between atoms: _512  and  _513
REMARK  215  A    between atoms: _517  and  _519
REMARK  216  A    between atoms: _519  and  _520
REMARK  217  A    between atoms: _522  and  _524
REMARK  218  A    between atoms: _524  and  _525
REMARK  219  A    between atoms: _524  and  _527
REMARK  220  A    between atoms: _527  and  _528
REMARK  221  A    between atoms: _533  and  _534
REMARK  222  A    between atoms: _536  and  _538
REMARK  223  A    between atoms: _538  and  _539
REMARK  224  A    between atoms: _541  and  _543
REMARK  225  A    between atoms: _543  and  _544
REMARK  226  A    between atoms: _543  and  _546
REMARK  227  A    between atoms: _546  and  _547
REMARK                            x       y       z     vdW  Elec       q    Type
REMARK                         _______ _______ _______ _____ _____    ______ ____
ROOT
ATOM      1  C   ARG A   2      -6.513  17.678  29.005  0.00  0.00    +0.241 C 
ATOM      2  N   ASN A   3      -7.646  17.006  28.848  0.00  0.00    -0.297 N 
ATOM      3  H   ASN A   3      -8.504  17.363  29.315  0.00  0.00    +0.150 HD
ATOM      4  O   ARG A   2      -5.443  17.377  28.445  0.00  0.00    -0.273 OA
ENDROOT
BRANCH   2   5
ATOM      5  CA  ASN A   3      -7.741  15.788  28.049  0.00  0.00    +0.158 C 
BRANCH   5   6
ATOM      6  C   ASN A   3      -9.202  15.527  27.743  0.00  0.00    +0.241 C 
ATOM      7  O   ASN A   3     -10.080  16.262  28.235  0.00  0.00    -0.273 OA
ATOM      8  N   SER A   4      -9.481  14.527  26.909  0.00  0.00    -0.295 N 
ATOM      9  H   SER A   4      -8.718  13.917  26.551  0.00  0.00    +0.150 HD
BRANCH   8  10
ATOM     10  CA  SER A   4     -10.868  14.290  26.498  0.00  0.00    +0.178 C 
BRANCH  10  11
ATOM     11  C   SER A   4     -11.771  13.859  27.646  0.00  0.00    +0.243 C 
ATOM     12  N   ASP A   5     -11.228  13.159  28.649  0.00  0.00    -0.297 N 
ATOM     13  H   ASP A   5     -10.227  12.881  28.599  0.00  0.00    +0.150 HD
ATOM     14  O   SER A   4     -12.960  14.168  27.625  0.00  0.00    -0.273 OA
BRANCH  12  15
ATOM     15  CA  ASP A   5     -12.030  12.779  29.821  0.00  0.00    +0.148 C 
BRANCH  15  16
ATOM     16  C   ASP A   5     -12.581  14.012  30.549  0.00  0.00    +0.227 C 
ATOM     17  O   ASP A   5     -13.768  14.071  30.884  0.00  0.00    -0.286 OA
ENDBRANCH  15  16
BRANCH  15  18
ATOM     18  CB  ASP A   5     -11.237  11.880  30.786  0.00  0.00    +0.142 C 
BRANCH  18  19
ATOM     19  CG  ASP A   5     -11.417  10.395  30.494  0.00  0.00    +0.367 C 
ATOM     20  OD2 ASP A   5     -10.654   9.594  31.070  0.00  0.00    -0.246 OA
ATOM     21  OD1 ASP A   5     -12.314  10.023  29.708  0.00  0.00    -0.246 OA
ENDBRANCH  18  19
ENDBRANCH  15  18
ENDBRANCH  12  15
ENDBRANCH  10  11
BRANCH  10  22
ATOM     22  CB  SER A   4     -10.955  13.301  25.341  0.00  0.00    +0.166 C 
BRANCH  22  23
ATOM     23  OG  SER A   4     -10.430  12.056  25.732  0.00  0.00    -0.380 OA
ATOM     24  H   SER A   4     -10.491  11.421  24.975  0.00  0.00    +0.211 HD
ENDBRANCH  22  23
ENDBRANCH  10  22
ENDBRANCH   8  10
ENDBRANCH   5   6
BRANCH   5  25
ATOM     25  CB  ASN A   3      -7.081  14.615  28.791  0.00  0.00    +0.114 C 
BRANCH  25  26
ATOM     26  CG  ASN A   3      -7.623  14.437  30.194  0.00  0.00    +0.222 C 
ATOM     27  ND2 ASN A   3      -6.723  14.347  31.157  0.00  0.00    -0.329 N 
ATOM     28 HD21 ASN A   3      -7.028  14.229  32.144  0.00  0.00    +0.145 HD
ATOM     29 HD22 ASN A   3      -5.710  14.394  30.928  0.00  0.00    +0.145 HD
ATOM     30  OD1 ASN A   3      -8.838  14.387  30.412  0.00  0.00    -0.275 OA
ENDBRANCH  25  26
ENDBRANCH   5  25
ENDBRANCH   2   5
BRANCH   1  31
ATOM     31  CA  ARG A   2      -6.579  18.847  29.973  0.00  0.00    +0.149 C 
BRANCH  31  33
ATOM     32  C   VAL A   1      -8.140  20.232  28.733  0.00  0.00    +0.238 C 
ATOM     33  N   ARG A   2      -7.824  19.606  29.859  0.00  0.00    -0.297 N 
ATOM     34  H   ARG A   2      -8.471  19.656  30.672  0.00  0.00    +0.150 HD
ATOM     35  O   VAL A   1      -7.494  20.094  27.685  0.00  0.00    -0.274 OA
BRANCH  32  36
ATOM     36  CA  VAL A   1      -9.374  21.138  28.779  0.00  0.00    +0.145 C 
BRANCH  36  37
ATOM     37  CB  VAL A   1     -10.700  20.300  28.702  0.00  0.00    +0.025 C 
ATOM     38  CG2 VAL A   1     -11.912  21.180  29.055  0.00  0.00    +0.002 C 
ATOM     39  CG1 VAL A   1     -10.890  19.648  27.328  0.00  0.00    +0.002 C 
ENDBRANCH  36  37
BRANCH  36  40
ATOM     40  N   VAL A   1      -9.306  22.169  27.748  0.00  0.00    -0.238 NA
ATOM     41  H   VAL A   1      -9.592  21.929  26.777  0.00  0.00    +0.142 HD
ENDBRANCH  36  40
ENDBRANCH  32  36
ENDBRANCH  31  33
BRANCH  31  42
ATOM     42  CB  ARG A   2      -6.410  18.348  31.403  0.00  0.00    +0.033 C 
BRANCH  42  43
ATOM     43  CG  ARG A   2      -5.003  17.875  31.719  0.00  0.00    +0.045 C 
BRANCH  43  44
ATOM     44  CD  ARG A   2      -4.979  17.243  33.073  0.00  0.00    +0.174 C 
BRANCH  44  45
ATOM     45  NE  ARG A   2      -5.490  18.143  34.112  0.00  0.00    -0.265 N 
ATOM     46  CZ  ARG A   2      -4.778  19.097  34.705  0.00  0.00    +0.342 C 
ATOM     47  NH2 ARG A   2      -5.330  19.852  35.649  0.00  0.00    -0.292 N 
ATOM     48 HH21 ARG A   2      -4.771  20.597  36.111  0.00  0.00    +0.255 HD
ATOM     49 HH22 ARG A   2      -6.321  19.697  35.925  0.00  0.00    +0.255 HD
ATOM     50  NH1 ARG A   2      -3.508  19.305  34.369  0.00  0.00    -0.292 N 
ATOM     51 HH11 ARG A   2      -2.962  20.054  34.840  0.00  0.00    +0.255 HD
ATOM     52 HH12 ARG A   2      -3.061  18.719  33.635  0.00  0.00    +0.255 HD
ATOM     53  HE  ARG A   2      -6.481  18.027  34.406  0.00  0.00    +0.259 HD
ENDBRANCH  44  45
ENDBRANCH  43  44
ENDBRANCH  42  43
ENDBRANCH  31  42
ENDBRANCH   1  31
TORSDOF 21
REMARK  Name = ../refined-set-2016/3fv2/3fv2_pocket.pdb
REMARK  227 active torsions:
REMARK  status: ('A' for Active; 'I' for Inactive)
REMARK    1  A    between atoms: _1  and  _3
REMARK    2  A    between atoms: _3  and  _4
REMARK    3  A    between atoms: _3  and  _6
REMARK    4  A    between atoms: _6  and  _7
REMARK    5  A    between atoms: _10  and  _12
REMARK    6  A    between atoms: _12  and  _13
REMARK    7  A    between atoms: _12  and  _15
REMARK    8  A    between atoms: _15  and  _16
REMARK    9  A    between atoms: _19  and  _21
REMARK   10  A    between atoms: _21  and  _22
REMARK   11  A    between atoms: _21  and  _24
REMARK   12  A    between atoms: _24  and  _25
REMARK   13  A    between atoms: _25  and  _26
REMARK   14  A    between atoms: _29  and  _31
REMARK   15  A    between atoms: _31  and  _32
REMARK   16  A    between atoms: _31  and  _34
REMARK   17  A    between atoms: _34  and  _35
REMARK   18  A    between atoms: _35  and  _36
REMARK   19  A    between atoms: _40  and  _41
REMARK   20  A    between atoms: _46  and  _48
REMARK   21  A    between atoms: _48  and  _49
REMARK   22  A    between atoms: _48  and  _51
REMARK   23  A    between atoms: _51  and  _52
REMARK   24  A    between atoms: _57  and  _58
REMARK   25  A    between atoms: _60  and  _62
REMARK   26  A    between atoms: _62  and  _63
REMARK   27  A    between atoms: _62  and  _65
REMARK   28  A    between atoms: _65  and  _66
REMARK   29  A    between atoms: _66  and  _67
REMARK   30  A    between atoms: _67  and  _68
REMARK   31  A    between atoms: _68  and  _69
REMARK   32  A    between atoms: _73  and  _75
REMARK   33  A    between atoms: _75  and  _76
REMARK   34  A    between atoms: _75  and  _78
REMARK   35  A    between atoms: _78  and  _79
REMARK   36  A    between atoms: _84  and  _85
REMARK   37  A    between atoms: _87  and  _89
REMARK   38  A    between atoms: _89  and  _90
REMARK   39  A    between atoms: _92  and  _94
REMARK   40  A    between atoms: _94  and  _95
REMARK   41  A    between atoms: _98  and  _100
REMARK   42  A    between atoms: _100  and  _101
REMARK   43  A    between atoms: _100  and  _103
REMARK   44  A    between atoms: _103  and  _104
REMARK   45  A    between atoms: _114  and  _116
REMARK   46  A    between atoms: _116  and  _117
REMARK   47  A    between atoms: _119  and  _121
REMARK   48  A    between atoms: _121  and  _122
REMARK   49  A    between atoms: _121  and  _124
REMARK   50  A    between atoms: _124  and  _125
REMARK   51  A    between atoms: _125  and  _126
REMARK   52  A    between atoms: _128  and  _130
REMARK   53  A    between atoms: _130  and  _131
REMARK   54  A    between atoms: _130  and  _133
REMARK   55  A    between atoms: _136  and  _138
REMARK   56  A    between atoms: _138  and  _139
REMARK   57  A    between atoms: _143  and  _144
REMARK   58  A    between atoms: _149  and  _151
REMARK   59  A    between atoms: _151  and  _152
REMARK   60  A    between atoms: _151  and  _154
REMARK   61  A    between atoms: _154  and  _155
REMARK   62  A    between atoms: _158  and  _160
REMARK   63  A    between atoms: _160  and  _161
REMARK   64  A    between atoms: _160  and  _163
REMARK   65  A    between atoms: _163  and  _164
REMARK   66  A    between atoms: _167  and  _169
REMARK   67  A    between atoms: _169  and  _170
REMARK   68  A    between atoms: _169  and  _172
REMARK   69  A    between atoms: _172  and  _173
REMARK   70  A    between atoms: _176  and  _178
REMARK   71  A    between atoms: _178  and  _179
REMARK   72  A    between atoms: _178  and  _181
REMARK   73  A    between atoms: _181  and  _182
REMARK   74  A    between atoms: _185  and  _187
REMARK   75  A    between atoms: _187  and  _188
REMARK   76  A    between atoms: _187  and  _190
REMARK   77  A    between atoms: _190  and  _191
REMARK   78  A    between atoms: _191  and  _192
REMARK   79  A    between atoms: _192  and  _193
REMARK   80  A    between atoms: _202  and  _204
REMARK   81  A    between atoms: _204  and  _205
REMARK   82  A    between atoms: _204  and  _207
REMARK   83  A    between atoms: _207  and  _208
REMARK   84  A    between atoms: _214  and  _216
REMARK   85  A    between atoms: _216  and  _217
REMARK   86  A    between atoms: _216  and  _219
REMARK   87  A    between atoms: _219  and  _220
REMARK   88  A    between atoms: _223  and  _225
REMARK   89  A    between atoms: _225  and  _226
REMARK   90  A    between atoms: _228  and  _230
REMARK   91  A    between atoms: _230  and  _231
REMARK   92  A    between atoms: _230  and  _233
REMARK   93  A    between atoms: _233  and  _234
REMARK   94  A    between atoms: _237  and  _239
REMARK   95  A    between atoms: _239  and  _240
REMARK   96  A    between atoms: _239  and  _242
REMARK   97  A    between atoms: _242  and  _243
REMARK   98  A    between atoms: _245  and  _247
REMARK   99  A    between atoms: _247  and  _248
REMARK  100  A    between atoms: _247  and  _250
REMARK  101  A    between atoms: _250  and  _251
REMARK  102  A    between atoms: _254  and  _256
REMARK  103  A    between atoms: _256  and  _257
REMARK  104  A    between atoms: _260  and  _262
REMARK  105  A    between atoms: _262  and  _263
REMARK  106  A    between atoms: _262  and  _265
REMARK  107  A    between atoms: _268  and  _270
REMARK  108  A    between atoms: _270  and  _271
REMARK  109  A    between atoms: _270  and  _273
REMARK  110  A    between atoms: _273  and  _274
REMARK  111  A    between atoms: _274  and  _275
REMARK  112  A    between atoms: _275  and  _276
REMARK  113  A    between atoms: _285  and  _287
REMARK  114  A    between atoms: _287  and  _288
REMARK  115  A    between atoms: _287  and  _290
REMARK  116  A    between atoms: _290  and  _291
REMARK  117  A    between atoms: _294  and  _296
REMARK  118  A    between atoms: _296  and  _297
REMARK  119  A    between atoms: _299  and  _301
REMARK  120  A    between atoms: _301  and  _302
REMARK  121  A    between atoms: _301  and  _304
REMARK  122  A    between atoms: _304  and  _305
REMARK  123  A    between atoms: _307  and  _309
REMARK  124  A    between atoms: _309  and  _310
REMARK  125  A    between atoms: _309  and  _312
REMARK  126  A    between atoms: _312  and  _313
REMARK  127  A    between atoms: _316  and  _318
REMARK  128  A    between atoms: _318  and  _319
REMARK  129  A    between atoms: _318  and  _321
REMARK  130  A    between atoms: _321  and  _322
REMARK  131  A    between atoms: _322  and  _323
REMARK  132  A    between atoms: _325  and  _327
REMARK  133  A    between atoms: _327  and  _328
REMARK  134  A    between atoms: _327  and  _330
REMARK  135  A    between atoms: _330  and  _331
REMARK  136  A    between atoms: _334  and  _336
REMARK  137  A    between atoms: _336  and  _337
REMARK  138  A    between atoms: _336  and  _339
REMARK  139  A    between atoms: _339  and  _340
REMARK  140  A    between atoms: _346  and  _348
REMARK  141  A    between atoms: _348  and  _349
REMARK  142  A    between atoms: _348  and  _351
REMARK  143  A    between atoms: _351  and  _352
REMARK  144  A    between atoms: _358  and  _360
REMARK  145  A    between atoms: _360  and  _361
REMARK  146  A    between atoms: _360  and  _363
REMARK  147  A    between atoms: _366  and  _368
REMARK  148  A    between atoms: _368  and  _369
REMARK  149  A    between atoms: _368  and  _371
REMARK  150  A    between atoms: _371  and  _372
REMARK  151  A    between atoms: _372  and  _373
REMARK  152  A    between atoms: _373  and  _374
REMARK  153  A    between atoms: _383  and  _385
REMARK  154  A    between atoms: _385  and  _386
REMARK  155  A    between atoms: _385  and  _388
REMARK  156  A    between atoms: _388  and  _389
REMARK  157  A    between atoms: _394  and  _396
REMARK  158  A    between atoms: _396  and  _397
REMARK  159  A    between atoms: _396  and  _399
REMARK  160  A    between atoms: _399  and  _400
REMARK  161  A    between atoms: _402  and  _404
REMARK  162  A    between atoms: _404  and  _405
REMARK  163  A    between atoms: _404  and  _407
REMARK  164  A    between atoms: _407  and  _408
REMARK  165  A    between atoms: _411  and  _413
REMARK  166  A    between atoms: _413  and  _414
REMARK  167  A    between atoms: _416  and  _418
REMARK  168  A    between atoms: _418  and  _419
REMARK  169  A    between atoms: _418  and  _421
REMARK  170  A    between atoms: _421  and  _422
REMARK  171  A    between atoms: _425  and  _427
REMARK  172  A    between atoms: _427  and  _428
REMARK  173  A    between atoms: _427  and  _430
REMARK  174  A    between atoms: _430  and  _431
REMARK  175  A    between atoms: _434  and  _436
REMARK  176  A    between atoms: _436  and  _437
REMARK  177  A    between atoms: _436  and  _439
REMARK  178  A    between atoms: _439  and  _440
REMARK  179  A    between atoms: _443  and  _445
REMARK  180  A    between atoms: _445  and  _446
REMARK  181  A    between atoms: _445  and  _448
REMARK  182  A    between atoms: _448  and  _449
REMARK  183  A    between atoms: _449  and  _450
REMARK  184  A    between atoms: _452  and  _454
REMARK  185  A    between atoms: _454  and  _455
REMARK  186  A    between atoms: _454  and  _457
REMARK  187  A    between atoms: _457  and  _458
REMARK  188  A    between atoms: _458  and  _459
REMARK  189  A    between atoms: _462  and  _464
REMARK  190  A    between atoms: _464  and  _465
REMARK  191  A    between atoms: _464  and  _467
REMARK  192  A    between atoms: _467  and  _468
REMARK  193  A    between atoms: _470  and  _472
REMARK  194  A    between atoms: _472  and  _473
REMARK  195  A    between atoms: _472  and  _475
REMARK  196  A    between atoms: _475  and  _476
REMARK  197  A    between atoms: _479  and  _481
REMARK  198  A    between atoms: _481  and  _482
REMARK  199  A    between atoms: _481  and  _484
REMARK  200  A    between atoms: _484  and  _485
REMARK  201  A    between atoms: _487  and  _489
REMARK  202  A    between atoms: _489  and  _490
REMARK  203  A    between atoms: _489  and  _492
REMARK  204  A    between atoms: _492  and  _493
REMARK  205  A    between atoms: _496  and  _498
REMARK  206  A    between atoms: _498  and  _499
REMARK  207  A    between atoms: _498  and  _501
REMARK  208  A    between atoms: _504  and  _506
REMARK  209  A    between atoms: _506  and  _507
REMARK  210  A    between atoms: _506  and  _509
REMARK  211  A    between atoms: _509  and  _510
REMARK  212  A    between atoms: _510  and  _511
REMARK  213  A    between atoms: _511  and  _512
REMARK  214  A    between atoms: _512  and  _513
REMARK  215  A    between atoms: _517  and  _519
REMARK  216  A    between atoms: _519  and  _520
REMARK  217  A    between atoms: _522  and  _524
REMARK  218  A    between atoms: _524  and  _525
REMARK  219  A    between atoms: _524  and  _527
REMARK  220  A    between atoms: _527  and  _528
REMARK  221  A    between atoms: _533  and  _534
REMARK  222  A    between atoms: _536  and  _538
REMARK  223  A    between atoms: _538  and  _539
REMARK  224  A    between atoms: _541  and  _543
REMARK  225  A    between atoms: _543  and  _544
REMARK  226  A    between atoms: _543  and  _546
REMARK  227  A    between atoms: _546  and  _547
REMARK                            x       y       z     vdW  Elec       q    Type
REMARK                         _______ _______ _______ _____ _____    ______ ____
ROOT
ATOM      1  C   GLY A   1     -15.134  16.999  28.293  0.00  0.00    +0.240 C 
ATOM      2  O   GLY A   1     -16.118  17.739  28.348  0.00  0.00    -0.274 OA
ATOM      3  N   ILE A   2     -15.236  15.677  28.268  0.00  0.00    -0.298 N 
ATOM      4  H   ILE A   2     -14.374  15.097  28.223  0.00  0.00    +0.150 HD
ENDROOT
BRANCH   1   5
ATOM      5  CA  GLY A   1     -13.727  17.570  28.272  0.00  0.00    +0.169 C 
BRANCH   5   6
ATOM      6  N   GLY A   1     -12.835  16.930  29.245  0.00  0.00    -0.236 NA
ATOM      7  H   GLY A   1     -11.977  16.444  28.914  0.00  0.00    +0.142 HD
ENDBRANCH   5   6
ENDBRANCH   1   5
BRANCH   3   8
ATOM      8  CA  ILE A   2     -16.549  15.019  28.303  0.00  0.00    +0.137 C 
BRANCH   8   9
ATOM      9  C   ILE A   2     -17.269  15.289  29.620  0.00  0.00    +0.227 C 
ATOM     10  O   ILE A   2     -18.474  15.557  29.631  0.00  0.00    -0.286 OA
ENDBRANCH   8   9
BRANCH   8  11
ATOM     11  CB  ILE A   2     -16.431  13.505  28.034  0.00  0.00    +0.026 C 
ATOM     12  CG2 ILE A   2     -17.767  12.784  28.322  0.00  0.00    +0.002 C 
BRANCH  11  13
ATOM     13  CG1 ILE A   2     -16.014  13.285  26.581  0.00  0.00    +0.002 C 
ATOM     14  CD1 ILE A   2     -15.390  11.933  26.315  0.00  0.00    +0.000 C 
ENDBRANCH  11  13
ENDBRANCH   8  11
ENDBRANCH   3   8
TORSDOF 6
REMARK  Name = ../refined-set-2016/3fv2/3fv2_pocket.pdb
REMARK  227 active torsions:
REMARK  status: ('A' for Active; 'I' for Inactive)
REMARK    1  A    between atoms: _1  and  _3
REMARK    2  A    between atoms: _3  and  _4
REMARK    3  A    between atoms: _3  and  _6
REMARK    4  A    between atoms: _6  and  _7
REMARK    5  A    between atoms: _10  and  _12
REMARK    6  A    between atoms: _12  and  _13
REMARK    7  A    between atoms: _12  and  _15
REMARK    8  A    between atoms: _15  and  _16
REMARK    9  A    between atoms: _19  and  _21
REMARK   10  A    between atoms: _21  and  _22
REMARK   11  A    between atoms: _21  and  _24
REMARK   12  A    between atoms: _24  and  _25
REMARK   13  A    between atoms: _25  and  _26
REMARK   14  A    between atoms: _29  and  _31
REMARK   15  A    between atoms: _31  and  _32
REMARK   16  A    between atoms: _31  and  _34
REMARK   17  A    between atoms: _34  and  _35
REMARK   18  A    between atoms: _35  and  _36
REMARK   19  A    between atoms: _40  and  _41
REMARK   20  A    between atoms: _46  and  _48
REMARK   21  A    between atoms: _48  and  _49
REMARK   22  A    between atoms: _48  and  _51
REMARK   23  A    between atoms: _51  and  _52
REMARK   24  A    between atoms: _57  and  _58
REMARK   25  A    between atoms: _60  and  _62
REMARK   26  A    between atoms: _62  and  _63
REMARK   27  A    between atoms: _62  and  _65
REMARK   28  A    between atoms: _65  and  _66
REMARK   29  A    between atoms: _66  and  _67
REMARK   30  A    between atoms: _67  and  _68
REMARK   31  A    between atoms: _68  and  _69
REMARK   32  A    between atoms: _73  and  _75
REMARK   33  A    between atoms: _75  and  _76
REMARK   34  A    between atoms: _75  and  _78
REMARK   35  A    between atoms: _78  and  _79
REMARK   36  A    between atoms: _84  and  _85
REMARK   37  A    between atoms: _87  and  _89
REMARK   38  A    between atoms: _89  and  _90
REMARK   39  A    between atoms: _92  and  _94
REMARK   40  A    between atoms: _94  and  _95
REMARK   41  A    between atoms: _98  and  _100
REMARK   42  A    between atoms: _100  and  _101
REMARK   43  A    between atoms: _100  and  _103
REMARK   44  A    between atoms: _103  and  _104
REMARK   45  A    between atoms: _114  and  _116
REMARK   46  A    between atoms: _116  and  _117
REMARK   47  A    between atoms: _119  and  _121
REMARK   48  A    between atoms: _121  and  _122
REMARK   49  A    between atoms: _121  and  _124
REMARK   50  A    between atoms: _124  and  _125
REMARK   51  A    between atoms: _125  and  _126
REMARK   52  A    between atoms: _128  and  _130
REMARK   53  A    between atoms: _130  and  _131
REMARK   54  A    between atoms: _130  and  _133
REMARK   55  A    between atoms: _136  and  _138
REMARK   56  A    between atoms: _138  and  _139
REMARK   57  A    between atoms: _143  and  _144
REMARK   58  A    between atoms: _149  and  _151
REMARK   59  A    between atoms: _151  and  _152
REMARK   60  A    between atoms: _151  and  _154
REMARK   61  A    between atoms: _154  and  _155
REMARK   62  A    between atoms: _158  and  _160
REMARK   63  A    between atoms: _160  and  _161
REMARK   64  A    between atoms: _160  and  _163
REMARK   65  A    between atoms: _163  and  _164
REMARK   66  A    between atoms: _167  and  _169
REMARK   67  A    between atoms: _169  and  _170
REMARK   68  A    between atoms: _169  and  _172
REMARK   69  A    between atoms: _172  and  _173
REMARK   70  A    between atoms: _176  and  _178
REMARK   71  A    between atoms: _178  and  _179
REMARK   72  A    between atoms: _178  and  _181
REMARK   73  A    between atoms: _181  and  _182
REMARK   74  A    between atoms: _185  and  _187
REMARK   75  A    between atoms: _187  and  _188
REMARK   76  A    between atoms: _187  and  _190
REMARK   77  A    between atoms: _190  and  _191
REMARK   78  A    between atoms: _191  and  _192
REMARK   79  A    between atoms: _192  and  _193
REMARK   80  A    between atoms: _202  and  _204
REMARK   81  A    between atoms: _204  and  _205
REMARK   82  A    between atoms: _204  and  _207
REMARK   83  A    between atoms: _207  and  _208
REMARK   84  A    between atoms: _214  and  _216
REMARK   85  A    between atoms: _216  and  _217
REMARK   86  A    between atoms: _216  and  _219
REMARK   87  A    between atoms: _219  and  _220
REMARK   88  A    between atoms: _223  and  _225
REMARK   89  A    between atoms: _225  and  _226
REMARK   90  A    between atoms: _228  and  _230
REMARK   91  A    between atoms: _230  and  _231
REMARK   92  A    between atoms: _230  and  _233
REMARK   93  A    between atoms: _233  and  _234
REMARK   94  A    between atoms: _237  and  _239
REMARK   95  A    between atoms: _239  and  _240
REMARK   96  A    between atoms: _239  and  _242
REMARK   97  A    between atoms: _242  and  _243
REMARK   98  A    between atoms: _245  and  _247
REMARK   99  A    between atoms: _247  and  _248
REMARK  100  A    between atoms: _247  and  _250
REMARK  101  A    between atoms: _250  and  _251
REMARK  102  A    between atoms: _254  and  _256
REMARK  103  A    between atoms: _256  and  _257
REMARK  104  A    between atoms: _260  and  _262
REMARK  105  A    between atoms: _262  and  _263
REMARK  106  A    between atoms: _262  and  _265
REMARK  107  A    between atoms: _268  and  _270
REMARK  108  A    between atoms: _270  and  _271
REMARK  109  A    between atoms: _270  and  _273
REMARK  110  A    between atoms: _273  and  _274
REMARK  111  A    between atoms: _274  and  _275
REMARK  112  A    between atoms: _275  and  _276
REMARK  113  A    between atoms: _285  and  _287
REMARK  114  A    between atoms: _287  and  _288
REMARK  115  A    between atoms: _287  and  _290
REMARK  116  A    between atoms: _290  and  _291
REMARK  117  A    between atoms: _294  and  _296
REMARK  118  A    between atoms: _296  and  _297
REMARK  119  A    between atoms: _299  and  _301
REMARK  120  A    between atoms: _301  and  _302
REMARK  121  A    between atoms: _301  and  _304
REMARK  122  A    between atoms: _304  and  _305
REMARK  123  A    between atoms: _307  and  _309
REMARK  124  A    between atoms: _309  and  _310
REMARK  125  A    between atoms: _309  and  _312
REMARK  126  A    between atoms: _312  and  _313
REMARK  127  A    between atoms: _316  and  _318
REMARK  128  A    between atoms: _318  and  _319
REMARK  129  A    between atoms: _318  and  _321
REMARK  130  A    between atoms: _321  and  _322
REMARK  131  A    between atoms: _322  and  _323
REMARK  132  A    between atoms: _325  and  _327
REMARK  133  A    between atoms: _327  and  _328
REMARK  134  A    between atoms: _327  and  _330
REMARK  135  A    between atoms: _330  and  _331
REMARK  136  A    between atoms: _334  and  _336
REMARK  137  A    between atoms: _336  and  _337
REMARK  138  A    between atoms: _336  and  _339
REMARK  139  A    between atoms: _339  and  _340
REMARK  140  A    between atoms: _346  and  _348
REMARK  141  A    between atoms: _348  and  _349
REMARK  142  A    between atoms: _348  and  _351
REMARK  143  A    between atoms: _351  and  _352
REMARK  144  A    between atoms: _358  and  _360
REMARK  145  A    between atoms: _360  and  _361
REMARK  146  A    between atoms: _360  and  _363
REMARK  147  A    between atoms: _366  and  _368
REMARK  148  A    between atoms: _368  and  _369
REMARK  149  A    between atoms: _368  and  _371
REMARK  150  A    between atoms: _371  and  _372
REMARK  151  A    between atoms: _372  and  _373
REMARK  152  A    between atoms: _373  and  _374
REMARK  153  A    between atoms: _383  and  _385
REMARK  154  A    between atoms: _385  and  _386
REMARK  155  A    between atoms: _385  and  _388
REMARK  156  A    between atoms: _388  and  _389
REMARK  157  A    between atoms: _394  and  _396
REMARK  158  A    between atoms: _396  and  _397
REMARK  159  A    between atoms: _396  and  _399
REMARK  160  A    between atoms: _399  and  _400
REMARK  161  A    between atoms: _402  and  _404
REMARK  162  A    between atoms: _404  and  _405
REMARK  163  A    between atoms: _404  and  _407
REMARK  164  A    between atoms: _407  and  _408
REMARK  165  A    between atoms: _411  and  _413
REMARK  166  A    between atoms: _413  and  _414
REMARK  167  A    between atoms: _416  and  _418
REMARK  168  A    between atoms: _418  and  _419
REMARK  169  A    between atoms: _418  and  _421
REMARK  170  A    between atoms: _421  and  _422
REMARK  171  A    between atoms: _425  and  _427
REMARK  172  A    between atoms: _427  and  _428
REMARK  173  A    between atoms: _427  and  _430
REMARK  174  A    between atoms: _430  and  _431
REMARK  175  A    between atoms: _434  and  _436
REMARK  176  A    between atoms: _436  and  _437
REMARK  177  A    between atoms: _436  and  _439
REMARK  178  A    between atoms: _439  and  _440
REMARK  179  A    between atoms: _443  and  _445
REMARK  180  A    between atoms: _445  and  _446
REMARK  181  A    between atoms: _445  and  _448
REMARK  182  A    between atoms: _448  and  _449
REMARK  183  A    between atoms: _449  and  _450
REMARK  184  A    between atoms: _452  and  _454
REMARK  185  A    between atoms: _454  and  _455
REMARK  186  A    between atoms: _454  and  _457
REMARK  187  A    between atoms: _457  and  _458
REMARK  188  A    between atoms: _458  and  _459
REMARK  189  A    between atoms: _462  and  _464
REMARK  190  A    between atoms: _464  and  _465
REMARK  191  A    between atoms: _464  and  _467
REMARK  192  A    between atoms: _467  and  _468
REMARK  193  A    between atoms: _470  and  _472
REMARK  194  A    between atoms: _472  and  _473
REMARK  195  A    between atoms: _472  and  _475
REMARK  196  A    between atoms: _475  and  _476
REMARK  197  A    between atoms: _479  and  _481
REMARK  198  A    between atoms: _481  and  _482
REMARK  199  A    between atoms: _481  and  _484
REMARK  200  A    between atoms: _484  and  _485
REMARK  201  A    between atoms: _487  and  _489
REMARK  202  A    between atoms: _489  and  _490
REMARK  203  A    between atoms: _489  and  _492
REMARK  204  A    between atoms: _492  and  _493
REMARK  205  A    between atoms: _496  and  _498
REMARK  206  A    between atoms: _498  and  _499
REMARK  207  A    between atoms: _498  and  _501
REMARK  208  A    between atoms: _504  and  _506
REMARK  209  A    between atoms: _506  and  _507
REMARK  210  A    between atoms: _506  and  _509
REMARK  211  A    between atoms: _509  and  _510
REMARK  212  A    between atoms: _510  and  _511
REMARK  213  A    between atoms: _511  and  _512
REMARK  214  A    between atoms: _512  and  _513
REMARK  215  A    between atoms: _517  and  _519
REMARK  216  A    between atoms: _519  and  _520
REMARK  217  A    between atoms: _522  and  _524
REMARK  218  A    between atoms: _524  and  _525
REMARK  219  A    between atoms: _524  and  _527
REMARK  220  A    between atoms: _527  and  _528
REMARK  221  A    between atoms: _533  and  _534
REMARK  222  A    between atoms: _536  and  _538
REMARK  223  A    between atoms: _538  and  _539
REMARK  224  A    between atoms: _541  and  _543
REMARK  225  A    between atoms: _543  and  _544
REMARK  226  A    between atoms: _543  and  _546
REMARK  227  A    between atoms: _546  and  _547
REMARK                            x       y       z     vdW  Elec       q    Type
REMARK                         _______ _______ _______ _____ _____    ______ ____
ROOT
ATOM      1  C   GLU A   4     -13.907  13.330  16.268  0.00  0.00    +0.241 C 
ATOM      2  O   GLU A   4     -14.286  12.658  17.233  0.00  0.00    -0.273 OA
ATOM      3  N   SER A   5     -14.433  13.223  15.054  0.00  0.00    -0.295 N 
ATOM      4  H   SER A   5     -13.944  13.677  14.256  0.00  0.00    +0.150 HD
ENDROOT
BRANCH   3   5
ATOM      5  CA  SER A   5     -15.663  12.497  14.796  0.00  0.00    +0.178 C 
BRANCH   5   6
ATOM      6  C   SER A   5     -15.641  11.031  15.211  0.00  0.00    +0.243 C 
ATOM      7  O   SER A   5     -16.673  10.488  15.607  0.00  0.00    -0.273 OA
ATOM      8  N   THR A   6     -14.477  10.391  15.121  0.00  0.00    -0.295 N 
ATOM      9  H   THR A   6     -13.643  10.903  14.770  0.00  0.00    +0.150 HD
BRANCH   8  10
ATOM     10  CA  THR A   6     -14.342   8.982  15.504  0.00  0.00    +0.176 C 
BRANCH  10  11
ATOM     11  C   THR A   6     -14.569   8.810  17.015  0.00  0.00    +0.243 C 
ATOM     12  N   SER A   7     -14.120   9.777  17.806  0.00  0.00    -0.295 N 
ATOM     13  H   SER A   7     -13.561  10.557  17.405  0.00  0.00    +0.150 HD
ATOM     14  O   THR A   6     -15.156   7.822  17.466  0.00  0.00    -0.273 OA
BRANCH  12  15
ATOM     15  CA  SER A   7     -14.408   9.749  19.233  0.00  0.00    +0.178 C 
BRANCH  15  16
ATOM     16  C   SER A   7     -15.855  10.114  19.528  0.00  0.00    +0.243 C 
ATOM     17  O   SER A   7     -16.448   9.540  20.432  0.00  0.00    -0.273 OA
ATOM     18  N   ILE A   8     -16.423  11.058  18.780  0.00  0.00    -0.298 N 
ATOM     19  H   ILE A   8     -15.862  11.562  18.064  0.00  0.00    +0.150 HD
BRANCH  18  20
ATOM     20  CA  ILE A   8     -17.842  11.387  18.967  0.00  0.00    +0.137 C 
BRANCH  20  21
ATOM     21  CB  ILE A   8     -18.292  12.567  18.083  0.00  0.00    +0.026 C 
ATOM     22  CG2 ILE A   8     -19.762  12.857  18.309  0.00  0.00    +0.002 C 
BRANCH  21  23
ATOM     23  CG1 ILE A   8     -17.466  13.808  18.439  0.00  0.00    +0.002 C 
ATOM     24  CD1 ILE A   8     -17.845  15.076  17.647  0.00  0.00    +0.000 C 
ENDBRANCH  21  23
ENDBRANCH  20  21
BRANCH  20  25
ATOM     25  C   ILE A   8     -18.687  10.147  18.688  0.00  0.00    +0.227 C 
ATOM     26  O   ILE A   8     -19.595   9.818  19.458  0.00  0.00    -0.286 OA
ENDBRANCH  20  25
ENDBRANCH  18  20
ENDBRANCH  15  16
BRANCH  15  27
ATOM     27  CB  SER A   7     -13.467  10.661  20.002  0.00  0.00    +0.166 C 
BRANCH  27  28
ATOM     28  OG  SER A   7     -12.181  10.085  20.043  0.00  0.00    -0.380 OA
ATOM     29  H   SER A   7     -11.844   9.966  19.120  0.00  0.00    +0.211 HD
ENDBRANCH  27  28
ENDBRANCH  15  27
ENDBRANCH  12  15
ENDBRANCH  10  11
BRANCH  10  30
ATOM     30  CB  THR A   6     -12.959   8.453  15.108  0.00  0.00    +0.137 C 
ATOM     31  CG2 THR A   6     -12.979   7.972  13.666  0.00  0.00    +0.034 C 
BRANCH  30  32
ATOM     32  OG1 THR A   6     -12.030   9.532  15.191  0.00  0.00    -0.382 OA
ATOM     33  HG1 THR A   6     -12.010   9.878  16.118  0.00  0.00    +0.210 HD
ENDBRANCH  30  32
ENDBRANCH  10  30
ENDBRANCH   8  10
ENDBRANCH   5   6
BRANCH   5  34
ATOM     34  CB  SER A   5     -16.012  12.630  13.313  0.00  0.00    +0.166 C 
BRANCH  34  35
ATOM     35  OG  SER A   5     -14.967  12.105  12.504  0.00  0.00    -0.380 OA
ATOM     36  H   SER A   5     -14.835  11.148  12.718  0.00  0.00    +0.211 HD
ENDBRANCH  34  35
ENDBRANCH   5  34
ENDBRANCH   3   5
BRANCH   1  37
ATOM     37  CA  GLU A   4     -12.769  14.344  16.390  0.00  0.00    +0.149 C 
BRANCH  37  39
ATOM     38  C   MET A   3     -13.738  16.053  17.795  0.00  0.00    +0.241 C 
ATOM     39  N   GLU A   4     -12.822  15.107  17.628  0.00  0.00    -0.297 N 
ATOM     40  H   GLU A   4     -12.138  14.910  18.386  0.00  0.00    +0.150 HD
ATOM     41  O   MET A   3     -14.554  16.341  16.914  0.00  0.00    -0.273 OA
BRANCH  38  42
ATOM     42  CA  MET A   3     -13.769  16.743  19.150  0.00  0.00    +0.149 C 
BRANCH  42  45
ATOM     43  C   LEU A   2     -13.887  19.127  19.740  0.00  0.00    +0.241 C 
ATOM     44  O   LEU A   2     -12.914  19.082  20.479  0.00  0.00    -0.273 OA
ATOM     45  N   MET A   3     -14.258  18.118  18.950  0.00  0.00    -0.297 N 
ATOM     46  H   MET A   3     -14.915  18.309  18.166  0.00  0.00    +0.150 HD
BRANCH  43  47
ATOM     47  CA  LEU A   2     -14.766  20.374  19.709  0.00  0.00    +0.149 C 
BRANCH  47  49
ATOM     48  C   LEU A   1     -16.180  19.910  21.641  0.00  0.00    +0.238 C 
ATOM     49  N   LEU A   2     -15.203  20.622  21.084  0.00  0.00    -0.297 N 
ATOM     50  H   LEU A   2     -14.740  21.371  21.638  0.00  0.00    +0.150 HD
ATOM     51  O   LEU A   1     -16.882  19.123  21.004  0.00  0.00    -0.274 OA
BRANCH  48  52
ATOM     52  CA  LEU A   1     -16.398  20.107  23.134  0.00  0.00    +0.145 C 
BRANCH  52  53
ATOM     53  N   LEU A   1     -17.774  20.483  23.433  0.00  0.00    -0.238 NA
ATOM     54  H   LEU A   1     -18.515  19.754  23.393  0.00  0.00    +0.142 HD
ENDBRANCH  52  53
BRANCH  52  55
ATOM     55  CB  LEU A   1     -16.030  18.829  23.901  0.00  0.00    +0.026 C 
BRANCH  55  56
ATOM     56  CG  LEU A   1     -14.586  18.314  23.750  0.00  0.00    +0.002 C 
ATOM     57  CD2 LEU A   1     -14.421  16.970  24.442  0.00  0.00    +0.000 C 
ATOM     58  CD1 LEU A   1     -13.579  19.303  24.323  0.00  0.00    +0.000 C 
ENDBRANCH  55  56
ENDBRANCH  52  55
ENDBRANCH  48  52
ENDBRANCH  47  49
BRANCH  47  59
ATOM     59  CB  LEU A   2     -14.029  21.600  19.148  0.00  0.00    +0.029 C 
BRANCH  59  60
ATOM     60  CG  LEU A   2     -14.903  22.742  18.593  0.00  0.00    +0.002 C 
ATOM     61  CD2 LEU A   2     -15.919  23.283  19.612  0.00  0.00    +0.000 C 
ATOM     62  CD1 LEU A   2     -15.601  22.312  17.294  0.00  0.00    +0.000 C 
ENDBRANCH  59  60
ENDBRANCH  47  59
ENDBRANCH  43  47
ENDBRANCH  42  45
BRANCH  42  63
ATOM     63  CB  MET A   3     -14.734  15.980  20.116  0.00  0.00    +0.041 C 
BRANCH  63  64
ATOM     64  CG  MET A   3     -14.451  14.458  20.283  0.00  0.00    +0.060 C 
BRANCH  64  65
ATOM     65  SD  MET A   3     -15.537  13.714  21.523  0.00  0.00    -0.139 S 
ATOM     66  CE  MET A   3     -14.413  13.461  22.903  0.00  0.00    +0.069 C 
ENDBRANCH  64  65
ENDBRANCH  63  64
ENDBRANCH  42  63
ENDBRANCH  38  42
ENDBRANCH  37  39
BRANCH  37  67
ATOM     67  CB  GLU A   4     -11.383  13.730  16.233  0.00  0.00    +0.041 C 
BRANCH  67  68
ATOM     68  CG  GLU A   4     -10.318  14.835  16.083  0.00  0.00    +0.116 C 
BRANCH  68  69
ATOM     69  CD  GLU A   4      -8.885  14.336  16.120  0.00  0.00    +0.365 C 
ATOM     70  OE2 GLU A   4      -8.590  13.312  16.781  0.00  0.00    -0.246 OA
ATOM     71  OE1 GLU A   4      -8.031  15.026  15.512  0.00  0.00    -0.246 OA
ENDBRANCH  68  69
ENDBRANCH  67  68
ENDBRANCH  37  67
ENDBRANCH   1  37
TORSDOF 34
REMARK  Name = ../refined-set-2016/3fv2/3fv2_pocket.pdb
REMARK  227 active torsions:
REMARK  status: ('A' for Active; 'I' for Inactive)
REMARK    1  A    between atoms: _1  and  _3
REMARK    2  A    between atoms: _3  and  _4
REMARK    3  A    between atoms: _3  and  _6
REMARK    4  A    between atoms: _6  and  _7
REMARK    5  A    between atoms: _10  and  _12
REMARK    6  A    between atoms: _12  and  _13
REMARK    7  A    between atoms: _12  and  _15
REMARK    8  A    between atoms: _15  and  _16
REMARK    9  A    between atoms: _19  and  _21
REMARK   10  A    between atoms: _21  and  _22
REMARK   11  A    between atoms: _21  and  _24
REMARK   12  A    between atoms: _24  and  _25
REMARK   13  A    between atoms: _25  and  _26
REMARK   14  A    between atoms: _29  and  _31
REMARK   15  A    between atoms: _31  and  _32
REMARK   16  A    between atoms: _31  and  _34
REMARK   17  A    between atoms: _34  and  _35
REMARK   18  A    between atoms: _35  and  _36
REMARK   19  A    between atoms: _40  and  _41
REMARK   20  A    between atoms: _46  and  _48
REMARK   21  A    between atoms: _48  and  _49
REMARK   22  A    between atoms: _48  and  _51
REMARK   23  A    between atoms: _51  and  _52
REMARK   24  A    between atoms: _57  and  _58
REMARK   25  A    between atoms: _60  and  _62
REMARK   26  A    between atoms: _62  and  _63
REMARK   27  A    between atoms: _62  and  _65
REMARK   28  A    between atoms: _65  and  _66
REMARK   29  A    between atoms: _66  and  _67
REMARK   30  A    between atoms: _67  and  _68
REMARK   31  A    between atoms: _68  and  _69
REMARK   32  A    between atoms: _73  and  _75
REMARK   33  A    between atoms: _75  and  _76
REMARK   34  A    between atoms: _75  and  _78
REMARK   35  A    between atoms: _78  and  _79
REMARK   36  A    between atoms: _84  and  _85
REMARK   37  A    between atoms: _87  and  _89
REMARK   38  A    between atoms: _89  and  _90
REMARK   39  A    between atoms: _92  and  _94
REMARK   40  A    between atoms: _94  and  _95
REMARK   41  A    between atoms: _98  and  _100
REMARK   42  A    between atoms: _100  and  _101
REMARK   43  A    between atoms: _100  and  _103
REMARK   44  A    between atoms: _103  and  _104
REMARK   45  A    between atoms: _114  and  _116
REMARK   46  A    between atoms: _116  and  _117
REMARK   47  A    between atoms: _119  and  _121
REMARK   48  A    between atoms: _121  and  _122
REMARK   49  A    between atoms: _121  and  _124
REMARK   50  A    between atoms: _124  and  _125
REMARK   51  A    between atoms: _125  and  _126
REMARK   52  A    between atoms: _128  and  _130
REMARK   53  A    between atoms: _130  and  _131
REMARK   54  A    between atoms: _130  and  _133
REMARK   55  A    between atoms: _136  and  _138
REMARK   56  A    between atoms: _138  and  _139
REMARK   57  A    between atoms: _143  and  _144
REMARK   58  A    between atoms: _149  and  _151
REMARK   59  A    between atoms: _151  and  _152
REMARK   60  A    between atoms: _151  and  _154
REMARK   61  A    between atoms: _154  and  _155
REMARK   62  A    between atoms: _158  and  _160
REMARK   63  A    between atoms: _160  and  _161
REMARK   64  A    between atoms: _160  and  _163
REMARK   65  A    between atoms: _163  and  _164
REMARK   66  A    between atoms: _167  and  _169
REMARK   67  A    between atoms: _169  and  _170
REMARK   68  A    between atoms: _169  and  _172
REMARK   69  A    between atoms: _172  and  _173
REMARK   70  A    between atoms: _176  and  _178
REMARK   71  A    between atoms: _178  and  _179
REMARK   72  A    between atoms: _178  and  _181
REMARK   73  A    between atoms: _181  and  _182
REMARK   74  A    between atoms: _185  and  _187
REMARK   75  A    between atoms: _187  and  _188
REMARK   76  A    between atoms: _187  and  _190
REMARK   77  A    between atoms: _190  and  _191
REMARK   78  A    between atoms: _191  and  _192
REMARK   79  A    between atoms: _192  and  _193
REMARK   80  A    between atoms: _202  and  _204
REMARK   81  A    between atoms: _204  and  _205
REMARK   82  A    between atoms: _204  and  _207
REMARK   83  A    between atoms: _207  and  _208
REMARK   84  A    between atoms: _214  and  _216
REMARK   85  A    between atoms: _216  and  _217
REMARK   86  A    between atoms: _216  and  _219
REMARK   87  A    between atoms: _219  and  _220
REMARK   88  A    between atoms: _223  and  _225
REMARK   89  A    between atoms: _225  and  _226
REMARK   90  A    between atoms: _228  and  _230
REMARK   91  A    between atoms: _230  and  _231
REMARK   92  A    between atoms: _230  and  _233
REMARK   93  A    between atoms: _233  and  _234
REMARK   94  A    between atoms: _237  and  _239
REMARK   95  A    between atoms: _239  and  _240
REMARK   96  A    between atoms: _239  and  _242
REMARK   97  A    between atoms: _242  and  _243
REMARK   98  A    between atoms: _245  and  _247
REMARK   99  A    between atoms: _247  and  _248
REMARK  100  A    between atoms: _247  and  _250
REMARK  101  A    between atoms: _250  and  _251
REMARK  102  A    between atoms: _254  and  _256
REMARK  103  A    between atoms: _256  and  _257
REMARK  104  A    between atoms: _260  and  _262
REMARK  105  A    between atoms: _262  and  _263
REMARK  106  A    between atoms: _262  and  _265
REMARK  107  A    between atoms: _268  and  _270
REMARK  108  A    between atoms: _270  and  _271
REMARK  109  A    between atoms: _270  and  _273
REMARK  110  A    between atoms: _273  and  _274
REMARK  111  A    between atoms: _274  and  _275
REMARK  112  A    between atoms: _275  and  _276
REMARK  113  A    between atoms: _285  and  _287
REMARK  114  A    between atoms: _287  and  _288
REMARK  115  A    between atoms: _287  and  _290
REMARK  116  A    between atoms: _290  and  _291
REMARK  117  A    between atoms: _294  and  _296
REMARK  118  A    between atoms: _296  and  _297
REMARK  119  A    between atoms: _299  and  _301
REMARK  120  A    between atoms: _301  and  _302
REMARK  121  A    between atoms: _301  and  _304
REMARK  122  A    between atoms: _304  and  _305
REMARK  123  A    between atoms: _307  and  _309
REMARK  124  A    between atoms: _309  and  _310
REMARK  125  A    between atoms: _309  and  _312
REMARK  126  A    between atoms: _312  and  _313
REMARK  127  A    between atoms: _316  and  _318
REMARK  128  A    between atoms: _318  and  _319
REMARK  129  A    between atoms: _318  and  _321
REMARK  130  A    between atoms: _321  and  _322
REMARK  131  A    between atoms: _322  and  _323
REMARK  132  A    between atoms: _325  and  _327
REMARK  133  A    between atoms: _327  and  _328
REMARK  134  A    between atoms: _327  and  _330
REMARK  135  A    between atoms: _330  and  _331
REMARK  136  A    between atoms: _334  and  _336
REMARK  137  A    between atoms: _336  and  _337
REMARK  138  A    between atoms: _336  and  _339
REMARK  139  A    between atoms: _339  and  _340
REMARK  140  A    between atoms: _346  and  _348
REMARK  141  A    between atoms: _348  and  _349
REMARK  142  A    between atoms: _348  and  _351
REMARK  143  A    between atoms: _351  and  _352
REMARK  144  A    between atoms: _358  and  _360
REMARK  145  A    between atoms: _360  and  _361
REMARK  146  A    between atoms: _360  and  _363
REMARK  147  A    between atoms: _366  and  _368
REMARK  148  A    between atoms: _368  and  _369
REMARK  149  A    between atoms: _368  and  _371
REMARK  150  A    between atoms: _371  and  _372
REMARK  151  A    between atoms: _372  and  _373
REMARK  152  A    between atoms: _373  and  _374
REMARK  153  A    between atoms: _383  and  _385
REMARK  154  A    between atoms: _385  and  _386
REMARK  155  A    between atoms: _385  and  _388
REMARK  156  A    between atoms: _388  and  _389
REMARK  157  A    between atoms: _394  and  _396
REMARK  158  A    between atoms: _396  and  _397
REMARK  159  A    between atoms: _396  and  _399
REMARK  160  A    between atoms: _399  and  _400
REMARK  161  A    between atoms: _402  and  _404
REMARK  162  A    between atoms: _404  and  _405
REMARK  163  A    between atoms: _404  and  _407
REMARK  164  A    between atoms: _407  and  _408
REMARK  165  A    between atoms: _411  and  _413
REMARK  166  A    between atoms: _413  and  _414
REMARK  167  A    between atoms: _416  and  _418
REMARK  168  A    between atoms: _418  and  _419
REMARK  169  A    between atoms: _418  and  _421
REMARK  170  A    between atoms: _421  and  _422
REMARK  171  A    between atoms: _425  and  _427
REMARK  172  A    between atoms: _427  and  _428
REMARK  173  A    between atoms: _427  and  _430
REMARK  174  A    between atoms: _430  and  _431
REMARK  175  A    between atoms: _434  and  _436
REMARK  176  A    between atoms: _436  and  _437
REMARK  177  A    between atoms: _436  and  _439
REMARK  178  A    between atoms: _439  and  _440
REMARK  179  A    between atoms: _443  and  _445
REMARK  180  A    between atoms: _445  and  _446
REMARK  181  A    between atoms: _445  and  _448
REMARK  182  A    between atoms: _448  and  _449
REMARK  183  A    between atoms: _449  and  _450
REMARK  184  A    between atoms: _452  and  _454
REMARK  185  A    between atoms: _454  and  _455
REMARK  186  A    between atoms: _454  and  _457
REMARK  187  A    between atoms: _457  and  _458
REMARK  188  A    between atoms: _458  and  _459
REMARK  189  A    between atoms: _462  and  _464
REMARK  190  A    between atoms: _464  and  _465
REMARK  191  A    between atoms: _464  and  _467
REMARK  192  A    between atoms: _467  and  _468
REMARK  193  A    between atoms: _470  and  _472
REMARK  194  A    between atoms: _472  and  _473
REMARK  195  A    between atoms: _472  and  _475
REMARK  196  A    between atoms: _475  and  _476
REMARK  197  A    between atoms: _479  and  _481
REMARK  198  A    between atoms: _481  and  _482
REMARK  199  A    between atoms: _481  and  _484
REMARK  200  A    between atoms: _484  and  _485
REMARK  201  A    between atoms: _487  and  _489
REMARK  202  A    between atoms: _489  and  _490
REMARK  203  A    between atoms: _489  and  _492
REMARK  204  A    between atoms: _492  and  _493
REMARK  205  A    between atoms: _496  and  _498
REMARK  206  A    between atoms: _498  and  _499
REMARK  207  A    between atoms: _498  and  _501
REMARK  208  A    between atoms: _504  and  _506
REMARK  209  A    between atoms: _506  and  _507
REMARK  210  A    between atoms: _506  and  _509
REMARK  211  A    between atoms: _509  and  _510
REMARK  212  A    between atoms: _510  and  _511
REMARK  213  A    between atoms: _511  and  _512
REMARK  214  A    between atoms: _512  and  _513
REMARK  215  A    between atoms: _517  and  _519
REMARK  216  A    between atoms: _519  and  _520
REMARK  217  A    between atoms: _522  and  _524
REMARK  218  A    between atoms: _524  and  _525
REMARK  219  A    between atoms: _524  and  _527
REMARK  220  A    between atoms: _527  and  _528
REMARK  221  A    between atoms: _533  and  _534
REMARK  222  A    between atoms: _536  and  _538
REMARK  223  A    between atoms: _538  and  _539
REMARK  224  A    between atoms: _541  and  _543
REMARK  225  A    between atoms: _543  and  _544
REMARK  226  A    between atoms: _543  and  _546
REMARK  227  A    between atoms: _546  and  _547
REMARK                            x       y       z     vdW  Elec       q    Type
REMARK                         _______ _______ _______ _____ _____    ______ ____
ROOT
ATOM      1  CA  VAL A   1     -19.044   8.174  23.001  0.00  0.00    +0.133 C 
ENDROOT
BRANCH   1   2
ATOM      2  CB  VAL A   1     -18.476   9.498  23.578  0.00  0.00    +0.023 C 
ATOM      3  CG2 VAL A   1     -17.003   9.369  23.863  0.00  0.00    +0.002 C 
ATOM      4  CG1 VAL A   1     -18.745  10.675  22.675  0.00  0.00    +0.002 C 
ENDBRANCH   1   2
BRANCH   1   5
ATOM      5  N   VAL A   1     -18.365   7.750  21.774  0.00  0.00    -0.239 NA
ATOM      6  H   VAL A   1     -17.788   8.430  21.239  0.00  0.00    +0.142 HD
ENDBRANCH   1   5
BRANCH   1   7
ATOM      7  C   VAL A   1     -20.561   8.235  22.866  0.00  0.00    +0.224 C 
ATOM      8  O   VAL A   1     -21.284   7.880  23.808  0.00  0.00    -0.287 OA
ENDBRANCH   1   7
TORSDOF 3
REMARK  Name = ../refined-set-2016/3fv2/3fv2_pocket.pdb
REMARK  227 active torsions:
REMARK  status: ('A' for Active; 'I' for Inactive)
REMARK    1  A    between atoms: _1  and  _3
REMARK    2  A    between atoms: _3  and  _4
REMARK    3  A    between atoms: _3  and  _6
REMARK    4  A    between atoms: _6  and  _7
REMARK    5  A    between atoms: _10  and  _12
REMARK    6  A    between atoms: _12  and  _13
REMARK    7  A    between atoms: _12  and  _15
REMARK    8  A    between atoms: _15  and  _16
REMARK    9  A    between atoms: _19  and  _21
REMARK   10  A    between atoms: _21  and  _22
REMARK   11  A    between atoms: _21  and  _24
REMARK   12  A    between atoms: _24  and  _25
REMARK   13  A    between atoms: _25  and  _26
REMARK   14  A    between atoms: _29  and  _31
REMARK   15  A    between atoms: _31  and  _32
REMARK   16  A    between atoms: _31  and  _34
REMARK   17  A    between atoms: _34  and  _35
REMARK   18  A    between atoms: _35  and  _36
REMARK   19  A    between atoms: _40  and  _41
REMARK   20  A    between atoms: _46  and  _48
REMARK   21  A    between atoms: _48  and  _49
REMARK   22  A    between atoms: _48  and  _51
REMARK   23  A    between atoms: _51  and  _52
REMARK   24  A    between atoms: _57  and  _58
REMARK   25  A    between atoms: _60  and  _62
REMARK   26  A    between atoms: _62  and  _63
REMARK   27  A    between atoms: _62  and  _65
REMARK   28  A    between atoms: _65  and  _66
REMARK   29  A    between atoms: _66  and  _67
REMARK   30  A    between atoms: _67  and  _68
REMARK   31  A    between atoms: _68  and  _69
REMARK   32  A    between atoms: _73  and  _75
REMARK   33  A    between atoms: _75  and  _76
REMARK   34  A    between atoms: _75  and  _78
REMARK   35  A    between atoms: _78  and  _79
REMARK   36  A    between atoms: _84  and  _85
REMARK   37  A    between atoms: _87  and  _89
REMARK   38  A    between atoms: _89  and  _90
REMARK   39  A    between atoms: _92  and  _94
REMARK   40  A    between atoms: _94  and  _95
REMARK   41  A    between atoms: _98  and  _100
REMARK   42  A    between atoms: _100  and  _101
REMARK   43  A    between atoms: _100  and  _103
REMARK   44  A    between atoms: _103  and  _104
REMARK   45  A    between atoms: _114  and  _116
REMARK   46  A    between atoms: _116  and  _117
REMARK   47  A    between atoms: _119  and  _121
REMARK   48  A    between atoms: _121  and  _122
REMARK   49  A    between atoms: _121  and  _124
REMARK   50  A    between atoms: _124  and  _125
REMARK   51  A    between atoms: _125  and  _126
REMARK   52  A    between atoms: _128  and  _130
REMARK   53  A    between atoms: _130  and  _131
REMARK   54  A    between atoms: _130  and  _133
REMARK   55  A    between atoms: _136  and  _138
REMARK   56  A    between atoms: _138  and  _139
REMARK   57  A    between atoms: _143  and  _144
REMARK   58  A    between atoms: _149  and  _151
REMARK   59  A    between atoms: _151  and  _152
REMARK   60  A    between atoms: _151  and  _154
REMARK   61  A    between atoms: _154  and  _155
REMARK   62  A    between atoms: _158  and  _160
REMARK   63  A    between atoms: _160  and  _161
REMARK   64  A    between atoms: _160  and  _163
REMARK   65  A    between atoms: _163  and  _164
REMARK   66  A    between atoms: _167  and  _169
REMARK   67  A    between atoms: _169  and  _170
REMARK   68  A    between atoms: _169  and  _172
REMARK   69  A    between atoms: _172  and  _173
REMARK   70  A    between atoms: _176  and  _178
REMARK   71  A    between atoms: _178  and  _179
REMARK   72  A    between atoms: _178  and  _181
REMARK   73  A    between atoms: _181  and  _182
REMARK   74  A    between atoms: _185  and  _187
REMARK   75  A    between atoms: _187  and  _188
REMARK   76  A    between atoms: _187  and  _190
REMARK   77  A    between atoms: _190  and  _191
REMARK   78  A    between atoms: _191  and  _192
REMARK   79  A    between atoms: _192  and  _193
REMARK   80  A    between atoms: _202  and  _204
REMARK   81  A    between atoms: _204  and  _205
REMARK   82  A    between atoms: _204  and  _207
REMARK   83  A    between atoms: _207  and  _208
REMARK   84  A    between atoms: _214  and  _216
REMARK   85  A    between atoms: _216  and  _217
REMARK   86  A    between atoms: _216  and  _219
REMARK   87  A    between atoms: _219  and  _220
REMARK   88  A    between atoms: _223  and  _225
REMARK   89  A    between atoms: _225  and  _226
REMARK   90  A    between atoms: _228  and  _230
REMARK   91  A    between atoms: _230  and  _231
REMARK   92  A    between atoms: _230  and  _233
REMARK   93  A    between atoms: _233  and  _234
REMARK   94  A    between atoms: _237  and  _239
REMARK   95  A    between atoms: _239  and  _240
REMARK   96  A    between atoms: _239  and  _242
REMARK   97  A    between atoms: _242  and  _243
REMARK   98  A    between atoms: _245  and  _247
REMARK   99  A    between atoms: _247  and  _248
REMARK  100  A    between atoms: _247  and  _250
REMARK  101  A    between atoms: _250  and  _251
REMARK  102  A    between atoms: _254  and  _256
REMARK  103  A    between atoms: _256  and  _257
REMARK  104  A    between atoms: _260  and  _262
REMARK  105  A    between atoms: _262  and  _263
REMARK  106  A    between atoms: _262  and  _265
REMARK  107  A    between atoms: _268  and  _270
REMARK  108  A    between atoms: _270  and  _271
REMARK  109  A    between atoms: _270  and  _273
REMARK  110  A    between atoms: _273  and  _274
REMARK  111  A    between atoms: _274  and  _275
REMARK  112  A    between atoms: _275  and  _276
REMARK  113  A    between atoms: _285  and  _287
REMARK  114  A    between atoms: _287  and  _288
REMARK  115  A    between atoms: _287  and  _290
REMARK  116  A    between atoms: _290  and  _291
REMARK  117  A    between atoms: _294  and  _296
REMARK  118  A    between atoms: _296  and  _297
REMARK  119  A    between atoms: _299  and  _301
REMARK  120  A    between atoms: _301  and  _302
REMARK  121  A    between atoms: _301  and  _304
REMARK  122  A    between atoms: _304  and  _305
REMARK  123  A    between atoms: _307  and  _309
REMARK  124  A    between atoms: _309  and  _310
REMARK  125  A    between atoms: _309  and  _312
REMARK  126  A    between atoms: _312  and  _313
REMARK  127  A    between atoms: _316  and  _318
REMARK  128  A    between atoms: _318  and  _319
REMARK  129  A    between atoms: _318  and  _321
REMARK  130  A    between atoms: _321  and  _322
REMARK  131  A    between atoms: _322  and  _323
REMARK  132  A    between atoms: _325  and  _327
REMARK  133  A    between atoms: _327  and  _328
REMARK  134  A    between atoms: _327  and  _330
REMARK  135  A    between atoms: _330  and  _331
REMARK  136  A    between atoms: _334  and  _336
REMARK  137  A    between atoms: _336  and  _337
REMARK  138  A    between atoms: _336  and  _339
REMARK  139  A    between atoms: _339  and  _340
REMARK  140  A    between atoms: _346  and  _348
REMARK  141  A    between atoms: _348  and  _349
REMARK  142  A    between atoms: _348  and  _351
REMARK  143  A    between atoms: _351  and  _352
REMARK  144  A    between atoms: _358  and  _360
REMARK  145  A    between atoms: _360  and  _361
REMARK  146  A    between atoms: _360  and  _363
REMARK  147  A    between atoms: _366  and  _368
REMARK  148  A    between atoms: _368  and  _369
REMARK  149  A    between atoms: _368  and  _371
REMARK  150  A    between atoms: _371  and  _372
REMARK  151  A    between atoms: _372  and  _373
REMARK  152  A    between atoms: _373  and  _374
REMARK  153  A    between atoms: _383  and  _385
REMARK  154  A    between atoms: _385  and  _386
REMARK  155  A    between atoms: _385  and  _388
REMARK  156  A    between atoms: _388  and  _389
REMARK  157  A    between atoms: _394  and  _396
REMARK  158  A    between atoms: _396  and  _397
REMARK  159  A    between atoms: _396  and  _399
REMARK  160  A    between atoms: _399  and  _400
REMARK  161  A    between atoms: _402  and  _404
REMARK  162  A    between atoms: _404  and  _405
REMARK  163  A    between atoms: _404  and  _407
REMARK  164  A    between atoms: _407  and  _408
REMARK  165  A    between atoms: _411  and  _413
REMARK  166  A    between atoms: _413  and  _414
REMARK  167  A    between atoms: _416  and  _418
REMARK  168  A    between atoms: _418  and  _419
REMARK  169  A    between atoms: _418  and  _421
REMARK  170  A    between atoms: _421  and  _422
REMARK  171  A    between atoms: _425  and  _427
REMARK  172  A    between atoms: _427  and  _428
REMARK  173  A    between atoms: _427  and  _430
REMARK  174  A    between atoms: _430  and  _431
REMARK  175  A    between atoms: _434  and  _436
REMARK  176  A    between atoms: _436  and  _437
REMARK  177  A    between atoms: _436  and  _439
REMARK  178  A    between atoms: _439  and  _440
REMARK  179  A    between atoms: _443  and  _445
REMARK  180  A    between atoms: _445  and  _446
REMARK  181  A    between atoms: _445  and  _448
REMARK  182  A    between atoms: _448  and  _449
REMARK  183  A    between atoms: _449  and  _450
REMARK  184  A    between atoms: _452  and  _454
REMARK  185  A    between atoms: _454  and  _455
REMARK  186  A    between atoms: _454  and  _457
REMARK  187  A    between atoms: _457  and  _458
REMARK  188  A    between atoms: _458  and  _459
REMARK  189  A    between atoms: _462  and  _464
REMARK  190  A    between atoms: _464  and  _465
REMARK  191  A    between atoms: _464  and  _467
REMARK  192  A    between atoms: _467  and  _468
REMARK  193  A    between atoms: _470  and  _472
REMARK  194  A    between atoms: _472  and  _473
REMARK  195  A    between atoms: _472  and  _475
REMARK  196  A    between atoms: _475  and  _476
REMARK  197  A    between atoms: _479  and  _481
REMARK  198  A    between atoms: _481  and  _482
REMARK  199  A    between atoms: _481  and  _484
REMARK  200  A    between atoms: _484  and  _485
REMARK  201  A    between atoms: _487  and  _489
REMARK  202  A    between atoms: _489  and  _490
REMARK  203  A    between atoms: _489  and  _492
REMARK  204  A    between atoms: _492  and  _493
REMARK  205  A    between atoms: _496  and  _498
REMARK  206  A    between atoms: _498  and  _499
REMARK  207  A    between atoms: _498  and  _501
REMARK  208  A    between atoms: _504  and  _506
REMARK  209  A    between atoms: _506  and  _507
REMARK  210  A    between atoms: _506  and  _509
REMARK  211  A    between atoms: _509  and  _510
REMARK  212  A    between atoms: _510  and  _511
REMARK  213  A    between atoms: _511  and  _512
REMARK  214  A    between atoms: _512  and  _513
REMARK  215  A    between atoms: _517  and  _519
REMARK  216  A    between atoms: _519  and  _520
REMARK  217  A    between atoms: _522  and  _524
REMARK  218  A    between atoms: _524  and  _525
REMARK  219  A    between atoms: _524  and  _527
REMARK  220  A    between atoms: _527  and  _528
REMARK  221  A    between atoms: _533  and  _534
REMARK  222  A    between atoms: _536  and  _538
REMARK  223  A    between atoms: _538  and  _539
REMARK  224  A    between atoms: _541  and  _543
REMARK  225  A    between atoms: _543  and  _544
REMARK  226  A    between atoms: _543  and  _546
REMARK  227  A    between atoms: _546  and  _547
REMARK                            x       y       z     vdW  Elec       q    Type
REMARK                         _______ _______ _______ _____ _____    ______ ____
ROOT
ATOM      1  C   GLY A   2      -5.228  11.065  10.280  0.00  0.00    +0.243 C 
ATOM      2  N   TYR A   3      -5.264   9.883  10.903  0.00  0.00    -0.297 N 
ATOM      3  H   TYR A   3      -6.007   9.204  10.640  0.00  0.00    +0.150 HD
ATOM      4  O   GLY A   2      -4.560  12.025  10.686  0.00  0.00    -0.273 OA
ENDROOT
BRANCH   1   5
ATOM      5  CA  GLY A   2      -6.090  11.181   9.035  0.00  0.00    +0.176 C 
BRANCH   5   7
ATOM      6  C   LYS A   1      -7.620  12.944   8.363  0.00  0.00    +0.238 C 
ATOM      7  N   GLY A   2      -6.378  12.557   8.643  0.00  0.00    -0.296 N 
ATOM      8  H   GLY A   2      -5.601  13.245   8.582  0.00  0.00    +0.150 HD
ATOM      9  O   LYS A   1      -8.603  12.221   8.517  0.00  0.00    -0.274 OA
BRANCH   6  10
ATOM     10  CA  LYS A   1      -7.779  14.350   7.834  0.00  0.00    +0.145 C 
BRANCH  10  11
ATOM     11  N   LYS A   1      -9.205  14.628   7.633  0.00  0.00    -0.238 NA
ATOM     12  H   LYS A   1      -9.907  13.972   8.032  0.00  0.00    +0.142 HD
ENDBRANCH  10  11
BRANCH  10  13
ATOM     13  CB  LYS A   1      -7.141  15.361   8.797  0.00  0.00    +0.026 C 
BRANCH  13  14
ATOM     14  CG  LYS A   1      -7.754  15.339  10.168  0.00  0.00    -0.000 C 
BRANCH  14  15
ATOM     15  CD  LYS A   1      -7.844  16.724  10.710  0.00  0.00    -0.024 C 
BRANCH  15  16
ATOM     16  CE  LYS A   1      -8.571  16.781  12.040  0.00  0.00    -0.086 C 
BRANCH  16  17
ATOM     17  NZ  LYS A   1      -8.357  18.142  12.526  0.00  0.00    +0.380 N 
ATOM     18  HZ1 LYS A   1      -8.831  18.259  13.444  0.00  0.00    -0.089 HD
ATOM     19  HZ2 LYS A   1      -7.337  18.313  12.637  0.00  0.00    -0.089 HD
ATOM     20  HZ3 LYS A   1      -8.751  18.819  11.842  0.00  0.00    -0.089 HD
ENDBRANCH  16  17
ENDBRANCH  15  16
ENDBRANCH  14  15
ENDBRANCH  13  14
ENDBRANCH  10  13
ENDBRANCH   6  10
ENDBRANCH   5   7
ENDBRANCH   1   5
BRANCH   2  21
ATOM     21  CA  TYR A   3      -4.293   9.499  11.950  0.00  0.00    +0.153 C 
BRANCH  21  22
ATOM     22  C   TYR A   3      -3.163   8.700  11.315  0.00  0.00    +0.241 C 
ATOM     23  N   GLY A   4      -1.941   8.969  11.767  0.00  0.00    -0.296 N 
ATOM     24  H   GLY A   4      -1.807   9.740  12.452  0.00  0.00    +0.150 HD
ATOM     25  O   TYR A   3      -3.397   7.871  10.418  0.00  0.00    -0.273 OA
BRANCH  23  26
ATOM     26  CA  GLY A   4      -0.787   8.200  11.318  0.00  0.00    +0.163 C 
BRANCH  26  27
ATOM     27  C   GLY A   4       0.105   7.852  12.485  0.00  0.00    +0.229 C 
ATOM     28  O   GLY A   4       0.001   8.441  13.568  0.00  0.00    -0.286 OA
ENDBRANCH  26  27
ENDBRANCH  23  26
ENDBRANCH  21  22
BRANCH  21  29
ATOM     29  CB  TYR A   3      -4.944   8.592  12.995  0.00  0.00    +0.055 C 
BRANCH  29  30
ATOM     30  CG  TYR A   3      -6.073   9.194  13.807  0.00  0.00    -0.020 A 
ATOM     31  CD2 TYR A   3      -6.022  10.518  14.258  0.00  0.00    -0.001 A 
ATOM     32  CE2 TYR A   3      -7.055  11.059  15.013  0.00  0.00    +0.036 A 
ATOM     33  CZ  TYR A   3      -8.165  10.259  15.339  0.00  0.00    +0.134 A 
ATOM     34  CE1 TYR A   3      -8.234   8.944  14.913  0.00  0.00    +0.036 A 
ATOM     35  CD1 TYR A   3      -7.194   8.420  14.144  0.00  0.00    -0.001 A 
BRANCH  33  36
ATOM     36  OH  TYR A   3      -9.185  10.786  16.109  0.00  0.00    -0.506 OA
ATOM     37  HH  TYR A   3      -8.980  11.730  16.326  0.00  0.00    +0.292 HD
ENDBRANCH  33  36
ENDBRANCH  29  30
ENDBRANCH  21  29
ENDBRANCH   2  21
TORSDOF 16
REMARK  Name = ../refined-set-2016/3fv2/3fv2_pocket.pdb
REMARK  227 active torsions:
REMARK  status: ('A' for Active; 'I' for Inactive)
REMARK    1  A    between atoms: _1  and  _3
REMARK    2  A    between atoms: _3  and  _4
REMARK    3  A    between atoms: _3  and  _6
REMARK    4  A    between atoms: _6  and  _7
REMARK    5  A    between atoms: _10  and  _12
REMARK    6  A    between atoms: _12  and  _13
REMARK    7  A    between atoms: _12  and  _15
REMARK    8  A    between atoms: _15  and  _16
REMARK    9  A    between atoms: _19  and  _21
REMARK   10  A    between atoms: _21  and  _22
REMARK   11  A    between atoms: _21  and  _24
REMARK   12  A    between atoms: _24  and  _25
REMARK   13  A    between atoms: _25  and  _26
REMARK   14  A    between atoms: _29  and  _31
REMARK   15  A    between atoms: _31  and  _32
REMARK   16  A    between atoms: _31  and  _34
REMARK   17  A    between atoms: _34  and  _35
REMARK   18  A    between atoms: _35  and  _36
REMARK   19  A    between atoms: _40  and  _41
REMARK   20  A    between atoms: _46  and  _48
REMARK   21  A    between atoms: _48  and  _49
REMARK   22  A    between atoms: _48  and  _51
REMARK   23  A    between atoms: _51  and  _52
REMARK   24  A    between atoms: _57  and  _58
REMARK   25  A    between atoms: _60  and  _62
REMARK   26  A    between atoms: _62  and  _63
REMARK   27  A    between atoms: _62  and  _65
REMARK   28  A    between atoms: _65  and  _66
REMARK   29  A    between atoms: _66  and  _67
REMARK   30  A    between atoms: _67  and  _68
REMARK   31  A    between atoms: _68  and  _69
REMARK   32  A    between atoms: _73  and  _75
REMARK   33  A    between atoms: _75  and  _76
REMARK   34  A    between atoms: _75  and  _78
REMARK   35  A    between atoms: _78  and  _79
REMARK   36  A    between atoms: _84  and  _85
REMARK   37  A    between atoms: _87  and  _89
REMARK   38  A    between atoms: _89  and  _90
REMARK   39  A    between atoms: _92  and  _94
REMARK   40  A    between atoms: _94  and  _95
REMARK   41  A    between atoms: _98  and  _100
REMARK   42  A    between atoms: _100  and  _101
REMARK   43  A    between atoms: _100  and  _103
REMARK   44  A    between atoms: _103  and  _104
REMARK   45  A    between atoms: _114  and  _116
REMARK   46  A    between atoms: _116  and  _117
REMARK   47  A    between atoms: _119  and  _121
REMARK   48  A    between atoms: _121  and  _122
REMARK   49  A    between atoms: _121  and  _124
REMARK   50  A    between atoms: _124  and  _125
REMARK   51  A    between atoms: _125  and  _126
REMARK   52  A    between atoms: _128  and  _130
REMARK   53  A    between atoms: _130  and  _131
REMARK   54  A    between atoms: _130  and  _133
REMARK   55  A    between atoms: _136  and  _138
REMARK   56  A    between atoms: _138  and  _139
REMARK   57  A    between atoms: _143  and  _144
REMARK   58  A    between atoms: _149  and  _151
REMARK   59  A    between atoms: _151  and  _152
REMARK   60  A    between atoms: _151  and  _154
REMARK   61  A    between atoms: _154  and  _155
REMARK   62  A    between atoms: _158  and  _160
REMARK   63  A    between atoms: _160  and  _161
REMARK   64  A    between atoms: _160  and  _163
REMARK   65  A    between atoms: _163  and  _164
REMARK   66  A    between atoms: _167  and  _169
REMARK   67  A    between atoms: _169  and  _170
REMARK   68  A    between atoms: _169  and  _172
REMARK   69  A    between atoms: _172  and  _173
REMARK   70  A    between atoms: _176  and  _178
REMARK   71  A    between atoms: _178  and  _179
REMARK   72  A    between atoms: _178  and  _181
REMARK   73  A    between atoms: _181  and  _182
REMARK   74  A    between atoms: _185  and  _187
REMARK   75  A    between atoms: _187  and  _188
REMARK   76  A    between atoms: _187  and  _190
REMARK   77  A    between atoms: _190  and  _191
REMARK   78  A    between atoms: _191  and  _192
REMARK   79  A    between atoms: _192  and  _193
REMARK   80  A    between atoms: _202  and  _204
REMARK   81  A    between atoms: _204  and  _205
REMARK   82  A    between atoms: _204  and  _207
REMARK   83  A    between atoms: _207  and  _208
REMARK   84  A    between atoms: _214  and  _216
REMARK   85  A    between atoms: _216  and  _217
REMARK   86  A    between atoms: _216  and  _219
REMARK   87  A    between atoms: _219  and  _220
REMARK   88  A    between atoms: _223  and  _225
REMARK   89  A    between atoms: _225  and  _226
REMARK   90  A    between atoms: _228  and  _230
REMARK   91  A    between atoms: _230  and  _231
REMARK   92  A    between atoms: _230  and  _233
REMARK   93  A    between atoms: _233  and  _234
REMARK   94  A    between atoms: _237  and  _239
REMARK   95  A    between atoms: _239  and  _240
REMARK   96  A    between atoms: _239  and  _242
REMARK   97  A    between atoms: _242  and  _243
REMARK   98  A    between atoms: _245  and  _247
REMARK   99  A    between atoms: _247  and  _248
REMARK  100  A    between atoms: _247  and  _250
REMARK  101  A    between atoms: _250  and  _251
REMARK  102  A    between atoms: _254  and  _256
REMARK  103  A    between atoms: _256  and  _257
REMARK  104  A    between atoms: _260  and  _262
REMARK  105  A    between atoms: _262  and  _263
REMARK  106  A    between atoms: _262  and  _265
REMARK  107  A    between atoms: _268  and  _270
REMARK  108  A    between atoms: _270  and  _271
REMARK  109  A    between atoms: _270  and  _273
REMARK  110  A    between atoms: _273  and  _274
REMARK  111  A    between atoms: _274  and  _275
REMARK  112  A    between atoms: _275  and  _276
REMARK  113  A    between atoms: _285  and  _287
REMARK  114  A    between atoms: _287  and  _288
REMARK  115  A    between atoms: _287  and  _290
REMARK  116  A    between atoms: _290  and  _291
REMARK  117  A    between atoms: _294  and  _296
REMARK  118  A    between atoms: _296  and  _297
REMARK  119  A    between atoms: _299  and  _301
REMARK  120  A    between atoms: _301  and  _302
REMARK  121  A    between atoms: _301  and  _304
REMARK  122  A    between atoms: _304  and  _305
REMARK  123  A    between atoms: _307  and  _309
REMARK  124  A    between atoms: _309  and  _310
REMARK  125  A    between atoms: _309  and  _312
REMARK  126  A    between atoms: _312  and  _313
REMARK  127  A    between atoms: _316  and  _318
REMARK  128  A    between atoms: _318  and  _319
REMARK  129  A    between atoms: _318  and  _321
REMARK  130  A    between atoms: _321  and  _322
REMARK  131  A    between atoms: _322  and  _323
REMARK  132  A    between atoms: _325  and  _327
REMARK  133  A    between atoms: _327  and  _328
REMARK  134  A    between atoms: _327  and  _330
REMARK  135  A    between atoms: _330  and  _331
REMARK  136  A    between atoms: _334  and  _336
REMARK  137  A    between atoms: _336  and  _337
REMARK  138  A    between atoms: _336  and  _339
REMARK  139  A    between atoms: _339  and  _340
REMARK  140  A    between atoms: _346  and  _348
REMARK  141  A    between atoms: _348  and  _349
REMARK  142  A    between atoms: _348  and  _351
REMARK  143  A    between atoms: _351  and  _352
REMARK  144  A    between atoms: _358  and  _360
REMARK  145  A    between atoms: _360  and  _361
REMARK  146  A    between atoms: _360  and  _363
REMARK  147  A    between atoms: _366  and  _368
REMARK  148  A    between atoms: _368  and  _369
REMARK  149  A    between atoms: _368  and  _371
REMARK  150  A    between atoms: _371  and  _372
REMARK  151  A    between atoms: _372  and  _373
REMARK  152  A    between atoms: _373  and  _374
REMARK  153  A    between atoms: _383  and  _385
REMARK  154  A    between atoms: _385  and  _386
REMARK  155  A    between atoms: _385  and  _388
REMARK  156  A    between atoms: _388  and  _389
REMARK  157  A    between atoms: _394  and  _396
REMARK  158  A    between atoms: _396  and  _397
REMARK  159  A    between atoms: _396  and  _399
REMARK  160  A    between atoms: _399  and  _400
REMARK  161  A    between atoms: _402  and  _404
REMARK  162  A    between atoms: _404  and  _405
REMARK  163  A    between atoms: _404  and  _407
REMARK  164  A    between atoms: _407  and  _408
REMARK  165  A    between atoms: _411  and  _413
REMARK  166  A    between atoms: _413  and  _414
REMARK  167  A    between atoms: _416  and  _418
REMARK  168  A    between atoms: _418  and  _419
REMARK  169  A    between atoms: _418  and  _421
REMARK  170  A    between atoms: _421  and  _422
REMARK  171  A    between atoms: _425  and  _427
REMARK  172  A    between atoms: _427  and  _428
REMARK  173  A    between atoms: _427  and  _430
REMARK  174  A    between atoms: _430  and  _431
REMARK  175  A    between atoms: _434  and  _436
REMARK  176  A    between atoms: _436  and  _437
REMARK  177  A    between atoms: _436  and  _439
REMARK  178  A    between atoms: _439  and  _440
REMARK  179  A    between atoms: _443  and  _445
REMARK  180  A    between atoms: _445  and  _446
REMARK  181  A    between atoms: _445  and  _448
REMARK  182  A    between atoms: _448  and  _449
REMARK  183  A    between atoms: _449  and  _450
REMARK  184  A    between atoms: _452  and  _454
REMARK  185  A    between atoms: _454  and  _455
REMARK  186  A    between atoms: _454  and  _457
REMARK  187  A    between atoms: _457  and  _458
REMARK  188  A    between atoms: _458  and  _459
REMARK  189  A    between atoms: _462  and  _464
REMARK  190  A    between atoms: _464  and  _465
REMARK  191  A    between atoms: _464  and  _467
REMARK  192  A    between atoms: _467  and  _468
REMARK  193  A    between atoms: _470  and  _472
REMARK  194  A    between atoms: _472  and  _473
REMARK  195  A    between atoms: _472  and  _475
REMARK  196  A    between atoms: _475  and  _476
REMARK  197  A    between atoms: _479  and  _481
REMARK  198  A    between atoms: _481  and  _482
REMARK  199  A    between atoms: _481  and  _484
REMARK  200  A    between atoms: _484  and  _485
REMARK  201  A    between atoms: _487  and  _489
REMARK  202  A    between atoms: _489  and  _490
REMARK  203  A    between atoms: _489  and  _492
REMARK  204  A    between atoms: _492  and  _493
REMARK  205  A    between atoms: _496  and  _498
REMARK  206  A    between atoms: _498  and  _499
REMARK  207  A    between atoms: _498  and  _501
REMARK  208  A    between atoms: _504  and  _506
REMARK  209  A    between atoms: _506  and  _507
REMARK  210  A    between atoms: _506  and  _509
REMARK  211  A    between atoms: _509  and  _510
REMARK  212  A    between atoms: _510  and  _511
REMARK  213  A    between atoms: _511  and  _512
REMARK  214  A    between atoms: _512  and  _513
REMARK  215  A    between atoms: _517  and  _519
REMARK  216  A    between atoms: _519  and  _520
REMARK  217  A    between atoms: _522  and  _524
REMARK  218  A    between atoms: _524  and  _525
REMARK  219  A    between atoms: _524  and  _527
REMARK  220  A    between atoms: _527  and  _528
REMARK  221  A    between atoms: _533  and  _534
REMARK  222  A    between atoms: _536  and  _538
REMARK  223  A    between atoms: _538  and  _539
REMARK  224  A    between atoms: _541  and  _543
REMARK  225  A    between atoms: _543  and  _544
REMARK  226  A    between atoms: _543  and  _546
REMARK  227  A    between atoms: _546  and  _547
REMARK                            x       y       z     vdW  Elec       q    Type
REMARK                         _______ _______ _______ _____ _____    ______ ____
ROOT
ATOM      1  CG  TRP A   1     -15.584   2.734  17.055  0.00  0.00    -0.002 A 
ATOM      2  CD1 TRP A   1     -16.094   4.007  17.113  0.00  0.00    +0.068 A 
ATOM      3  NE1 TRP A   1     -15.071   4.928  17.162  0.00  0.00    -0.352 N 
ATOM      4  HE1 TRP A   1     -15.192   5.959  17.218  0.00  0.00    +0.166 HD
ATOM      5  CE2 TRP A   1     -13.870   4.272  17.126  0.00  0.00    +0.056 A 
ATOM      6  CZ2 TRP A   1     -12.563   4.780  17.158  0.00  0.00    +0.017 A 
ATOM      7  CH2 TRP A   1     -11.536   3.879  17.115  0.00  0.00    +0.001 A 
ATOM      8  CZ3 TRP A   1     -11.772   2.492  17.051  0.00  0.00    +0.000 A 
ATOM      9  CE3 TRP A   1     -13.073   1.980  17.032  0.00  0.00    +0.001 A 
ATOM     10  CD2 TRP A   1     -14.149   2.881  17.073  0.00  0.00    +0.013 A 
ENDROOT
BRANCH   1  11
ATOM     11  CB  TRP A   1     -16.390   1.437  17.011  0.00  0.00    +0.053 C 
BRANCH  11  12
ATOM     12  CA  TRP A   1     -16.291   0.619  18.308  0.00  0.00    +0.137 C 
BRANCH  12  13
ATOM     13  N   TRP A   1     -15.137  -0.280  18.283  0.00  0.00    -0.239 NA
ATOM     14  H   TRP A   1     -14.870  -0.742  17.390  0.00  0.00    +0.142 HD
ENDBRANCH  12  13
BRANCH  12  15
ATOM     15  C   TRP A   1     -17.530  -0.228  18.580  0.00  0.00    +0.224 C 
ATOM     16  O   TRP A   1     -17.815  -1.183  17.859  0.00  0.00    -0.287 OA
ENDBRANCH  12  15
ENDBRANCH  11  12
ENDBRANCH   1  11
TORSDOF 4
REMARK  Name = ../refined-set-2016/3fv2/3fv2_pocket.pdb
REMARK  227 active torsions:
REMARK  status: ('A' for Active; 'I' for Inactive)
REMARK    1  A    between atoms: _1  and  _3
REMARK    2  A    between atoms: _3  and  _4
REMARK    3  A    between atoms: _3  and  _6
REMARK    4  A    between atoms: _6  and  _7
REMARK    5  A    between atoms: _10  and  _12
REMARK    6  A    between atoms: _12  and  _13
REMARK    7  A    between atoms: _12  and  _15
REMARK    8  A    between atoms: _15  and  _16
REMARK    9  A    between atoms: _19  and  _21
REMARK   10  A    between atoms: _21  and  _22
REMARK   11  A    between atoms: _21  and  _24
REMARK   12  A    between atoms: _24  and  _25
REMARK   13  A    between atoms: _25  and  _26
REMARK   14  A    between atoms: _29  and  _31
REMARK   15  A    between atoms: _31  and  _32
REMARK   16  A    between atoms: _31  and  _34
REMARK   17  A    between atoms: _34  and  _35
REMARK   18  A    between atoms: _35  and  _36
REMARK   19  A    between atoms: _40  and  _41
REMARK   20  A    between atoms: _46  and  _48
REMARK   21  A    between atoms: _48  and  _49
REMARK   22  A    between atoms: _48  and  _51
REMARK   23  A    between atoms: _51  and  _52
REMARK   24  A    between atoms: _57  and  _58
REMARK   25  A    between atoms: _60  and  _62
REMARK   26  A    between atoms: _62  and  _63
REMARK   27  A    between atoms: _62  and  _65
REMARK   28  A    between atoms: _65  and  _66
REMARK   29  A    between atoms: _66  and  _67
REMARK   30  A    between atoms: _67  and  _68
REMARK   31  A    between atoms: _68  and  _69
REMARK   32  A    between atoms: _73  and  _75
REMARK   33  A    between atoms: _75  and  _76
REMARK   34  A    between atoms: _75  and  _78
REMARK   35  A    between atoms: _78  and  _79
REMARK   36  A    between atoms: _84  and  _85
REMARK   37  A    between atoms: _87  and  _89
REMARK   38  A    between atoms: _89  and  _90
REMARK   39  A    between atoms: _92  and  _94
REMARK   40  A    between atoms: _94  and  _95
REMARK   41  A    between atoms: _98  and  _100
REMARK   42  A    between atoms: _100  and  _101
REMARK   43  A    between atoms: _100  and  _103
REMARK   44  A    between atoms: _103  and  _104
REMARK   45  A    between atoms: _114  and  _116
REMARK   46  A    between atoms: _116  and  _117
REMARK   47  A    between atoms: _119  and  _121
REMARK   48  A    between atoms: _121  and  _122
REMARK   49  A    between atoms: _121  and  _124
REMARK   50  A    between atoms: _124  and  _125
REMARK   51  A    between atoms: _125  and  _126
REMARK   52  A    between atoms: _128  and  _130
REMARK   53  A    between atoms: _130  and  _131
REMARK   54  A    between atoms: _130  and  _133
REMARK   55  A    between atoms: _136  and  _138
REMARK   56  A    between atoms: _138  and  _139
REMARK   57  A    between atoms: _143  and  _144
REMARK   58  A    between atoms: _149  and  _151
REMARK   59  A    between atoms: _151  and  _152
REMARK   60  A    between atoms: _151  and  _154
REMARK   61  A    between atoms: _154  and  _155
REMARK   62  A    between atoms: _158  and  _160
REMARK   63  A    between atoms: _160  and  _161
REMARK   64  A    between atoms: _160  and  _163
REMARK   65  A    between atoms: _163  and  _164
REMARK   66  A    between atoms: _167  and  _169
REMARK   67  A    between atoms: _169  and  _170
REMARK   68  A    between atoms: _169  and  _172
REMARK   69  A    between atoms: _172  and  _173
REMARK   70  A    between atoms: _176  and  _178
REMARK   71  A    between atoms: _178  and  _179
REMARK   72  A    between atoms: _178  and  _181
REMARK   73  A    between atoms: _181  and  _182
REMARK   74  A    between atoms: _185  and  _187
REMARK   75  A    between atoms: _187  and  _188
REMARK   76  A    between atoms: _187  and  _190
REMARK   77  A    between atoms: _190  and  _191
REMARK   78  A    between atoms: _191  and  _192
REMARK   79  A    between atoms: _192  and  _193
REMARK   80  A    between atoms: _202  and  _204
REMARK   81  A    between atoms: _204  and  _205
REMARK   82  A    between atoms: _204  and  _207
REMARK   83  A    between atoms: _207  and  _208
REMARK   84  A    between atoms: _214  and  _216
REMARK   85  A    between atoms: _216  and  _217
REMARK   86  A    between atoms: _216  and  _219
REMARK   87  A    between atoms: _219  and  _220
REMARK   88  A    between atoms: _223  and  _225
REMARK   89  A    between atoms: _225  and  _226
REMARK   90  A    between atoms: _228  and  _230
REMARK   91  A    between atoms: _230  and  _231
REMARK   92  A    between atoms: _230  and  _233
REMARK   93  A    between atoms: _233  and  _234
REMARK   94  A    between atoms: _237  and  _239
REMARK   95  A    between atoms: _239  and  _240
REMARK   96  A    between atoms: _239  and  _242
REMARK   97  A    between atoms: _242  and  _243
REMARK   98  A    between atoms: _245  and  _247
REMARK   99  A    between atoms: _247  and  _248
REMARK  100  A    between atoms: _247  and  _250
REMARK  101  A    between atoms: _250  and  _251
REMARK  102  A    between atoms: _254  and  _256
REMARK  103  A    between atoms: _256  and  _257
REMARK  104  A    between atoms: _260  and  _262
REMARK  105  A    between atoms: _262  and  _263
REMARK  106  A    between atoms: _262  and  _265
REMARK  107  A    between atoms: _268  and  _270
REMARK  108  A    between atoms: _270  and  _271
REMARK  109  A    between atoms: _270  and  _273
REMARK  110  A    between atoms: _273  and  _274
REMARK  111  A    between atoms: _274  and  _275
REMARK  112  A    between atoms: _275  and  _276
REMARK  113  A    between atoms: _285  and  _287
REMARK  114  A    between atoms: _287  and  _288
REMARK  115  A    between atoms: _287  and  _290
REMARK  116  A    between atoms: _290  and  _291
REMARK  117  A    between atoms: _294  and  _296
REMARK  118  A    between atoms: _296  and  _297
REMARK  119  A    between atoms: _299  and  _301
REMARK  120  A    between atoms: _301  and  _302
REMARK  121  A    between atoms: _301  and  _304
REMARK  122  A    between atoms: _304  and  _305
REMARK  123  A    between atoms: _307  and  _309
REMARK  124  A    between atoms: _309  and  _310
REMARK  125  A    between atoms: _309  and  _312
REMARK  126  A    between atoms: _312  and  _313
REMARK  127  A    between atoms: _316  and  _318
REMARK  128  A    between atoms: _318  and  _319
REMARK  129  A    between atoms: _318  and  _321
REMARK  130  A    between atoms: _321  and  _322
REMARK  131  A    between atoms: _322  and  _323
REMARK  132  A    between atoms: _325  and  _327
REMARK  133  A    between atoms: _327  and  _328
REMARK  134  A    between atoms: _327  and  _330
REMARK  135  A    between atoms: _330  and  _331
REMARK  136  A    between atoms: _334  and  _336
REMARK  137  A    between atoms: _336  and  _337
REMARK  138  A    between atoms: _336  and  _339
REMARK  139  A    between atoms: _339  and  _340
REMARK  140  A    between atoms: _346  and  _348
REMARK  141  A    between atoms: _348  and  _349
REMARK  142  A    between atoms: _348  and  _351
REMARK  143  A    between atoms: _351  and  _352
REMARK  144  A    between atoms: _358  and  _360
REMARK  145  A    between atoms: _360  and  _361
REMARK  146  A    between atoms: _360  and  _363
REMARK  147  A    between atoms: _366  and  _368
REMARK  148  A    between atoms: _368  and  _369
REMARK  149  A    between atoms: _368  and  _371
REMARK  150  A    between atoms: _371  and  _372
REMARK  151  A    between atoms: _372  and  _373
REMARK  152  A    between atoms: _373  and  _374
REMARK  153  A    between atoms: _383  and  _385
REMARK  154  A    between atoms: _385  and  _386
REMARK  155  A    between atoms: _385  and  _388
REMARK  156  A    between atoms: _388  and  _389
REMARK  157  A    between atoms: _394  and  _396
REMARK  158  A    between atoms: _396  and  _397
REMARK  159  A    between atoms: _396  and  _399
REMARK  160  A    between atoms: _399  and  _400
REMARK  161  A    between atoms: _402  and  _404
REMARK  162  A    between atoms: _404  and  _405
REMARK  163  A    between atoms: _404  and  _407
REMARK  164  A    between atoms: _407  and  _408
REMARK  165  A    between atoms: _411  and  _413
REMARK  166  A    between atoms: _413  and  _414
REMARK  167  A    between atoms: _416  and  _418
REMARK  168  A    between atoms: _418  and  _419
REMARK  169  A    between atoms: _418  and  _421
REMARK  170  A    between atoms: _421  and  _422
REMARK  171  A    between atoms: _425  and  _427
REMARK  172  A    between atoms: _427  and  _428
REMARK  173  A    between atoms: _427  and  _430
REMARK  174  A    between atoms: _430  and  _431
REMARK  175  A    between atoms: _434  and  _436
REMARK  176  A    between atoms: _436  and  _437
REMARK  177  A    between atoms: _436  and  _439
REMARK  178  A    between atoms: _439  and  _440
REMARK  179  A    between atoms: _443  and  _445
REMARK  180  A    between atoms: _445  and  _446
REMARK  181  A    between atoms: _445  and  _448
REMARK  182  A    between atoms: _448  and  _449
REMARK  183  A    between atoms: _449  and  _450
REMARK  184  A    between atoms: _452  and  _454
REMARK  185  A    between atoms: _454  and  _455
REMARK  186  A    between atoms: _454  and  _457
REMARK  187  A    between atoms: _457  and  _458
REMARK  188  A    between atoms: _458  and  _459
REMARK  189  A    between atoms: _462  and  _464
REMARK  190  A    between atoms: _464  and  _465
REMARK  191  A    between atoms: _464  and  _467
REMARK  192  A    between atoms: _467  and  _468
REMARK  193  A    between atoms: _470  and  _472
REMARK  194  A    between atoms: _472  and  _473
REMARK  195  A    between atoms: _472  and  _475
REMARK  196  A    between atoms: _475  and  _476
REMARK  197  A    between atoms: _479  and  _481
REMARK  198  A    between atoms: _481  and  _482
REMARK  199  A    between atoms: _481  and  _484
REMARK  200  A    between atoms: _484  and  _485
REMARK  201  A    between atoms: _487  and  _489
REMARK  202  A    between atoms: _489  and  _490
REMARK  203  A    between atoms: _489  and  _492
REMARK  204  A    between atoms: _492  and  _493
REMARK  205  A    between atoms: _496  and  _498
REMARK  206  A    between atoms: _498  and  _499
REMARK  207  A    between atoms: _498  and  _501
REMARK  208  A    between atoms: _504  and  _506
REMARK  209  A    between atoms: _506  and  _507
REMARK  210  A    between atoms: _506  and  _509
REMARK  211  A    between atoms: _509  and  _510
REMARK  212  A    between atoms: _510  and  _511
REMARK  213  A    between atoms: _511  and  _512
REMARK  214  A    between atoms: _512  and  _513
REMARK  215  A    between atoms: _517  and  _519
REMARK  216  A    between atoms: _519  and  _520
REMARK  217  A    between atoms: _522  and  _524
REMARK  218  A    between atoms: _524  and  _525
REMARK  219  A    between atoms: _524  and  _527
REMARK  220  A    between atoms: _527  and  _528
REMARK  221  A    between atoms: _533  and  _534
REMARK  222  A    between atoms: _536  and  _538
REMARK  223  A    between atoms: _538  and  _539
REMARK  224  A    between atoms: _541  and  _543
REMARK  225  A    between atoms: _543  and  _544
REMARK  226  A    between atoms: _543  and  _546
REMARK  227  A    between atoms: _546  and  _547
REMARK                            x       y       z     vdW  Elec       q    Type
REMARK                         _______ _______ _______ _____ _____    ______ ____
ROOT
ATOM      1  O   HOH     1     -10.369  18.463  21.277  0.00  0.00    +0.000 OA
ENDROOT
TORSDOF 0
REMARK  Name = ../refined-set-2016/3fv2/3fv2_pocket.pdb
REMARK  227 active torsions:
REMARK  status: ('A' for Active; 'I' for Inactive)
REMARK    1  A    between atoms: _1  and  _3
REMARK    2  A    between atoms: _3  and  _4
REMARK    3  A    between atoms: _3  and  _6
REMARK    4  A    between atoms: _6  and  _7
REMARK    5  A    between atoms: _10  and  _12
REMARK    6  A    between atoms: _12  and  _13
REMARK    7  A    between atoms: _12  and  _15
REMARK    8  A    between atoms: _15  and  _16
REMARK    9  A    between atoms: _19  and  _21
REMARK   10  A    between atoms: _21  and  _22
REMARK   11  A    between atoms: _21  and  _24
REMARK   12  A    between atoms: _24  and  _25
REMARK   13  A    between atoms: _25  and  _26
REMARK   14  A    between atoms: _29  and  _31
REMARK   15  A    between atoms: _31  and  _32
REMARK   16  A    between atoms: _31  and  _34
REMARK   17  A    between atoms: _34  and  _35
REMARK   18  A    between atoms: _35  and  _36
REMARK   19  A    between atoms: _40  and  _41
REMARK   20  A    between atoms: _46  and  _48
REMARK   21  A    between atoms: _48  and  _49
REMARK   22  A    between atoms: _48  and  _51
REMARK   23  A    between atoms: _51  and  _52
REMARK   24  A    between atoms: _57  and  _58
REMARK   25  A    between atoms: _60  and  _62
REMARK   26  A    between atoms: _62  and  _63
REMARK   27  A    between atoms: _62  and  _65
REMARK   28  A    between atoms: _65  and  _66
REMARK   29  A    between atoms: _66  and  _67
REMARK   30  A    between atoms: _67  and  _68
REMARK   31  A    between atoms: _68  and  _69
REMARK   32  A    between atoms: _73  and  _75
REMARK   33  A    between atoms: _75  and  _76
REMARK   34  A    between atoms: _75  and  _78
REMARK   35  A    between atoms: _78  and  _79
REMARK   36  A    between atoms: _84  and  _85
REMARK   37  A    between atoms: _87  and  _89
REMARK   38  A    between atoms: _89  and  _90
REMARK   39  A    between atoms: _92  and  _94
REMARK   40  A    between atoms: _94  and  _95
REMARK   41  A    between atoms: _98  and  _100
REMARK   42  A    between atoms: _100  and  _101
REMARK   43  A    between atoms: _100  and  _103
REMARK   44  A    between atoms: _103  and  _104
REMARK   45  A    between atoms: _114  and  _116
REMARK   46  A    between atoms: _116  and  _117
REMARK   47  A    between atoms: _119  and  _121
REMARK   48  A    between atoms: _121  and  _122
REMARK   49  A    between atoms: _121  and  _124
REMARK   50  A    between atoms: _124  and  _125
REMARK   51  A    between atoms: _125  and  _126
REMARK   52  A    between atoms: _128  and  _130
REMARK   53  A    between atoms: _130  and  _131
REMARK   54  A    between atoms: _130  and  _133
REMARK   55  A    between atoms: _136  and  _138
REMARK   56  A    between atoms: _138  and  _139
REMARK   57  A    between atoms: _143  and  _144
REMARK   58  A    between atoms: _149  and  _151
REMARK   59  A    between atoms: _151  and  _152
REMARK   60  A    between atoms: _151  and  _154
REMARK   61  A    between atoms: _154  and  _155
REMARK   62  A    between atoms: _158  and  _160
REMARK   63  A    between atoms: _160  and  _161
REMARK   64  A    between atoms: _160  and  _163
REMARK   65  A    between atoms: _163  and  _164
REMARK   66  A    between atoms: _167  and  _169
REMARK   67  A    between atoms: _169  and  _170
REMARK   68  A    between atoms: _169  and  _172
REMARK   69  A    between atoms: _172  and  _173
REMARK   70  A    between atoms: _176  and  _178
REMARK   71  A    between atoms: _178  and  _179
REMARK   72  A    between atoms: _178  and  _181
REMARK   73  A    between atoms: _181  and  _182
REMARK   74  A    between atoms: _185  and  _187
REMARK   75  A    between atoms: _187  and  _188
REMARK   76  A    between atoms: _187  and  _190
REMARK   77  A    between atoms: _190  and  _191
REMARK   78  A    between atoms: _191  and  _192
REMARK   79  A    between atoms: _192  and  _193
REMARK   80  A    between atoms: _202  and  _204
REMARK   81  A    between atoms: _204  and  _205
REMARK   82  A    between atoms: _204  and  _207
REMARK   83  A    between atoms: _207  and  _208
REMARK   84  A    between atoms: _214  and  _216
REMARK   85  A    between atoms: _216  and  _217
REMARK   86  A    between atoms: _216  and  _219
REMARK   87  A    between atoms: _219  and  _220
REMARK   88  A    between atoms: _223  and  _225
REMARK   89  A    between atoms: _225  and  _226
REMARK   90  A    between atoms: _228  and  _230
REMARK   91  A    between atoms: _230  and  _231
REMARK   92  A    between atoms: _230  and  _233
REMARK   93  A    between atoms: _233  and  _234
REMARK   94  A    between atoms: _237  and  _239
REMARK   95  A    between atoms: _239  and  _240
REMARK   96  A    between atoms: _239  and  _242
REMARK   97  A    between atoms: _242  and  _243
REMARK   98  A    between atoms: _245  and  _247
REMARK   99  A    between atoms: _247  and  _248
REMARK  100  A    between atoms: _247  and  _250
REMARK  101  A    between atoms: _250  and  _251
REMARK  102  A    between atoms: _254  and  _256
REMARK  103  A    between atoms: _256  and  _257
REMARK  104  A    between atoms: _260  and  _262
REMARK  105  A    between atoms: _262  and  _263
REMARK  106  A    between atoms: _262  and  _265
REMARK  107  A    between atoms: _268  and  _270
REMARK  108  A    between atoms: _270  and  _271
REMARK  109  A    between atoms: _270  and  _273
REMARK  110  A    between atoms: _273  and  _274
REMARK  111  A    between atoms: _274  and  _275
REMARK  112  A    between atoms: _275  and  _276
REMARK  113  A    between atoms: _285  and  _287
REMARK  114  A    between atoms: _287  and  _288
REMARK  115  A    between atoms: _287  and  _290
REMARK  116  A    between atoms: _290  and  _291
REMARK  117  A    between atoms: _294  and  _296
REMARK  118  A    between atoms: _296  and  _297
REMARK  119  A    between atoms: _299  and  _301
REMARK  120  A    between atoms: _301  and  _302
REMARK  121  A    between atoms: _301  and  _304
REMARK  122  A    between atoms: _304  and  _305
REMARK  123  A    between atoms: _307  and  _309
REMARK  124  A    between atoms: _309  and  _310
REMARK  125  A    between atoms: _309  and  _312
REMARK  126  A    between atoms: _312  and  _313
REMARK  127  A    between atoms: _316  and  _318
REMARK  128  A    between atoms: _318  and  _319
REMARK  129  A    between atoms: _318  and  _321
REMARK  130  A    between atoms: _321  and  _322
REMARK  131  A    between atoms: _322  and  _323
REMARK  132  A    between atoms: _325  and  _327
REMARK  133  A    between atoms: _327  and  _328
REMARK  134  A    between atoms: _327  and  _330
REMARK  135  A    between atoms: _330  and  _331
REMARK  136  A    between atoms: _334  and  _336
REMARK  137  A    between atoms: _336  and  _337
REMARK  138  A    between atoms: _336  and  _339
REMARK  139  A    between atoms: _339  and  _340
REMARK  140  A    between atoms: _346  and  _348
REMARK  141  A    between atoms: _348  and  _349
REMARK  142  A    between atoms: _348  and  _351
REMARK  143  A    between atoms: _351  and  _352
REMARK  144  A    between atoms: _358  and  _360
REMARK  145  A    between atoms: _360  and  _361
REMARK  146  A    between atoms: _360  and  _363
REMARK  147  A    between atoms: _366  and  _368
REMARK  148  A    between atoms: _368  and  _369
REMARK  149  A    between atoms: _368  and  _371
REMARK  150  A    between atoms: _371  and  _372
REMARK  151  A    between atoms: _372  and  _373
REMARK  152  A    between atoms: _373  and  _374
REMARK  153  A    between atoms: _383  and  _385
REMARK  154  A    between atoms: _385  and  _386
REMARK  155  A    between atoms: _385  and  _388
REMARK  156  A    between atoms: _388  and  _389
REMARK  157  A    between atoms: _394  and  _396
REMARK  158  A    between atoms: _396  and  _397
REMARK  159  A    between atoms: _396  and  _399
REMARK  160  A    between atoms: _399  and  _400
REMARK  161  A    between atoms: _402  and  _404
REMARK  162  A    between atoms: _404  and  _405
REMARK  163  A    between atoms: _404  and  _407
REMARK  164  A    between atoms: _407  and  _408
REMARK  165  A    between atoms: _411  and  _413
REMARK  166  A    between atoms: _413  and  _414
REMARK  167  A    between atoms: _416  and  _418
REMARK  168  A    between atoms: _418  and  _419
REMARK  169  A    between atoms: _418  and  _421
REMARK  170  A    between atoms: _421  and  _422
REMARK  171  A    between atoms: _425  and  _427
REMARK  172  A    between atoms: _427  and  _428
REMARK  173  A    between atoms: _427  and  _430
REMARK  174  A    between atoms: _430  and  _431
REMARK  175  A    between atoms: _434  and  _436
REMARK  176  A    between atoms: _436  and  _437
REMARK  177  A    between atoms: _436  and  _439
REMARK  178  A    between atoms: _439  and  _440
REMARK  179  A    between atoms: _443  and  _445
REMARK  180  A    between atoms: _445  and  _446
REMARK  181  A    between atoms: _445  and  _448
REMARK  182  A    between atoms: _448  and  _449
REMARK  183  A    between atoms: _449  and  _450
REMARK  184  A    between atoms: _452  and  _454
REMARK  185  A    between atoms: _454  and  _455
REMARK  186  A    between atoms: _454  and  _457
REMARK  187  A    between atoms: _457  and  _458
REMARK  188  A    between atoms: _458  and  _459
REMARK  189  A    between atoms: _462  and  _464
REMARK  190  A    between atoms: _464  and  _465
REMARK  191  A    between atoms: _464  and  _467
REMARK  192  A    between atoms: _467  and  _468
REMARK  193  A    between atoms: _470  and  _472
REMARK  194  A    between atoms: _472  and  _473
REMARK  195  A    between atoms: _472  and  _475
REMARK  196  A    between atoms: _475  and  _476
REMARK  197  A    between atoms: _479  and  _481
REMARK  198  A    between atoms: _481  and  _482
REMARK  199  A    between atoms: _481  and  _484
REMARK  200  A    between atoms: _484  and  _485
REMARK  201  A    between atoms: _487  and  _489
REMARK  202  A    between atoms: _489  and  _490
REMARK  203  A    between atoms: _489  and  _492
REMARK  204  A    between atoms: _492  and  _493
REMARK  205  A    between atoms: _496  and  _498
REMARK  206  A    between atoms: _498  and  _499
REMARK  207  A    between atoms: _498  and  _501
REMARK  208  A    between atoms: _504  and  _506
REMARK  209  A    between atoms: _506  and  _507
REMARK  210  A    between atoms: _506  and  _509
REMARK  211  A    between atoms: _509  and  _510
REMARK  212  A    between atoms: _510  and  _511
REMARK  213  A    between atoms: _511  and  _512
REMARK  214  A    between atoms: _512  and  _513
REMARK  215  A    between atoms: _517  and  _519
REMARK  216  A    between atoms: _519  and  _520
REMARK  217  A    between atoms: _522  and  _524
REMARK  218  A    between atoms: _524  and  _525
REMARK  219  A    between atoms: _524  and  _527
REMARK  220  A    between atoms: _527  and  _528
REMARK  221  A    between atoms: _533  and  _534
REMARK  222  A    between atoms: _536  and  _538
REMARK  223  A    between atoms: _538  and  _539
REMARK  224  A    between atoms: _541  and  _543
REMARK  225  A    between atoms: _543  and  _544
REMARK  226  A    between atoms: _543  and  _546
REMARK  227  A    between atoms: _546  and  _547
REMARK                            x       y       z     vdW  Elec       q    Type
REMARK                         _______ _______ _______ _____ _____    ______ ____
ROOT
ATOM      1  O   HOH     1      -6.743  19.914  20.631  0.00  0.00    +0.000 OA
ENDROOT
TORSDOF 0
REMARK  Name = ../refined-set-2016/3fv2/3fv2_pocket.pdb
REMARK  227 active torsions:
REMARK  status: ('A' for Active; 'I' for Inactive)
REMARK    1  A    between atoms: _1  and  _3
REMARK    2  A    between atoms: _3  and  _4
REMARK    3  A    between atoms: _3  and  _6
REMARK    4  A    between atoms: _6  and  _7
REMARK    5  A    between atoms: _10  and  _12
REMARK    6  A    between atoms: _12  and  _13
REMARK    7  A    between atoms: _12  and  _15
REMARK    8  A    between atoms: _15  and  _16
REMARK    9  A    between atoms: _19  and  _21
REMARK   10  A    between atoms: _21  and  _22
REMARK   11  A    between atoms: _21  and  _24
REMARK   12  A    between atoms: _24  and  _25
REMARK   13  A    between atoms: _25  and  _26
REMARK   14  A    between atoms: _29  and  _31
REMARK   15  A    between atoms: _31  and  _32
REMARK   16  A    between atoms: _31  and  _34
REMARK   17  A    between atoms: _34  and  _35
REMARK   18  A    between atoms: _35  and  _36
REMARK   19  A    between atoms: _40  and  _41
REMARK   20  A    between atoms: _46  and  _48
REMARK   21  A    between atoms: _48  and  _49
REMARK   22  A    between atoms: _48  and  _51
REMARK   23  A    between atoms: _51  and  _52
REMARK   24  A    between atoms: _57  and  _58
REMARK   25  A    between atoms: _60  and  _62
REMARK   26  A    between atoms: _62  and  _63
REMARK   27  A    between atoms: _62  and  _65
REMARK   28  A    between atoms: _65  and  _66
REMARK   29  A    between atoms: _66  and  _67
REMARK   30  A    between atoms: _67  and  _68
REMARK   31  A    between atoms: _68  and  _69
REMARK   32  A    between atoms: _73  and  _75
REMARK   33  A    between atoms: _75  and  _76
REMARK   34  A    between atoms: _75  and  _78
REMARK   35  A    between atoms: _78  and  _79
REMARK   36  A    between atoms: _84  and  _85
REMARK   37  A    between atoms: _87  and  _89
REMARK   38  A    between atoms: _89  and  _90
REMARK   39  A    between atoms: _92  and  _94
REMARK   40  A    between atoms: _94  and  _95
REMARK   41  A    between atoms: _98  and  _100
REMARK   42  A    between atoms: _100  and  _101
REMARK   43  A    between atoms: _100  and  _103
REMARK   44  A    between atoms: _103  and  _104
REMARK   45  A    between atoms: _114  and  _116
REMARK   46  A    between atoms: _116  and  _117
REMARK   47  A    between atoms: _119  and  _121
REMARK   48  A    between atoms: _121  and  _122
REMARK   49  A    between atoms: _121  and  _124
REMARK   50  A    between atoms: _124  and  _125
REMARK   51  A    between atoms: _125  and  _126
REMARK   52  A    between atoms: _128  and  _130
REMARK   53  A    between atoms: _130  and  _131
REMARK   54  A    between atoms: _130  and  _133
REMARK   55  A    between atoms: _136  and  _138
REMARK   56  A    between atoms: _138  and  _139
REMARK   57  A    between atoms: _143  and  _144
REMARK   58  A    between atoms: _149  and  _151
REMARK   59  A    between atoms: _151  and  _152
REMARK   60  A    between atoms: _151  and  _154
REMARK   61  A    between atoms: _154  and  _155
REMARK   62  A    between atoms: _158  and  _160
REMARK   63  A    between atoms: _160  and  _161
REMARK   64  A    between atoms: _160  and  _163
REMARK   65  A    between atoms: _163  and  _164
REMARK   66  A    between atoms: _167  and  _169
REMARK   67  A    between atoms: _169  and  _170
REMARK   68  A    between atoms: _169  and  _172
REMARK   69  A    between atoms: _172  and  _173
REMARK   70  A    between atoms: _176  and  _178
REMARK   71  A    between atoms: _178  and  _179
REMARK   72  A    between atoms: _178  and  _181
REMARK   73  A    between atoms: _181  and  _182
REMARK   74  A    between atoms: _185  and  _187
REMARK   75  A    between atoms: _187  and  _188
REMARK   76  A    between atoms: _187  and  _190
REMARK   77  A    between atoms: _190  and  _191
REMARK   78  A    between atoms: _191  and  _192
REMARK   79  A    between atoms: _192  and  _193
REMARK   80  A    between atoms: _202  and  _204
REMARK   81  A    between atoms: _204  and  _205
REMARK   82  A    between atoms: _204  and  _207
REMARK   83  A    between atoms: _207  and  _208
REMARK   84  A    between atoms: _214  and  _216
REMARK   85  A    between atoms: _216  and  _217
REMARK   86  A    between atoms: _216  and  _219
REMARK   87  A    between atoms: _219  and  _220
REMARK   88  A    between atoms: _223  and  _225
REMARK   89  A    between atoms: _225  and  _226
REMARK   90  A    between atoms: _228  and  _230
REMARK   91  A    between atoms: _230  and  _231
REMARK   92  A    between atoms: _230  and  _233
REMARK   93  A    between atoms: _233  and  _234
REMARK   94  A    between atoms: _237  and  _239
REMARK   95  A    between atoms: _239  and  _240
REMARK   96  A    between atoms: _239  and  _242
REMARK   97  A    between atoms: _242  and  _243
REMARK   98  A    between atoms: _245  and  _247
REMARK   99  A    between atoms: _247  and  _248
REMARK  100  A    between atoms: _247  and  _250
REMARK  101  A    between atoms: _250  and  _251
REMARK  102  A    between atoms: _254  and  _256
REMARK  103  A    between atoms: _256  and  _257
REMARK  104  A    between atoms: _260  and  _262
REMARK  105  A    between atoms: _262  and  _263
REMARK  106  A    between atoms: _262  and  _265
REMARK  107  A    between atoms: _268  and  _270
REMARK  108  A    between atoms: _270  and  _271
REMARK  109  A    between atoms: _270  and  _273
REMARK  110  A    between atoms: _273  and  _274
REMARK  111  A    between atoms: _274  and  _275
REMARK  112  A    between atoms: _275  and  _276
REMARK  113  A    between atoms: _285  and  _287
REMARK  114  A    between atoms: _287  and  _288
REMARK  115  A    between atoms: _287  and  _290
REMARK  116  A    between atoms: _290  and  _291
REMARK  117  A    between atoms: _294  and  _296
REMARK  118  A    between atoms: _296  and  _297
REMARK  119  A    between atoms: _299  and  _301
REMARK  120  A    between atoms: _301  and  _302
REMARK  121  A    between atoms: _301  and  _304
REMARK  122  A    between atoms: _304  and  _305
REMARK  123  A    between atoms: _307  and  _309
REMARK  124  A    between atoms: _309  and  _310
REMARK  125  A    between atoms: _309  and  _312
REMARK  126  A    between atoms: _312  and  _313
REMARK  127  A    between atoms: _316  and  _318
REMARK  128  A    between atoms: _318  and  _319
REMARK  129  A    between atoms: _318  and  _321
REMARK  130  A    between atoms: _321  and  _322
REMARK  131  A    between atoms: _322  and  _323
REMARK  132  A    between atoms: _325  and  _327
REMARK  133  A    between atoms: _327  and  _328
REMARK  134  A    between atoms: _327  and  _330
REMARK  135  A    between atoms: _330  and  _331
REMARK  136  A    between atoms: _334  and  _336
REMARK  137  A    between atoms: _336  and  _337
REMARK  138  A    between atoms: _336  and  _339
REMARK  139  A    between atoms: _339  and  _340
REMARK  140  A    between atoms: _346  and  _348
REMARK  141  A    between atoms: _348  and  _349
REMARK  142  A    between atoms: _348  and  _351
REMARK  143  A    between atoms: _351  and  _352
REMARK  144  A    between atoms: _358  and  _360
REMARK  145  A    between atoms: _360  and  _361
REMARK  146  A    between atoms: _360  and  _363
REMARK  147  A    between atoms: _366  and  _368
REMARK  148  A    between atoms: _368  and  _369
REMARK  149  A    between atoms: _368  and  _371
REMARK  150  A    between atoms: _371  and  _372
REMARK  151  A    between atoms: _372  and  _373
REMARK  152  A    between atoms: _373  and  _374
REMARK  153  A    between atoms: _383  and  _385
REMARK  154  A    between atoms: _385  and  _386
REMARK  155  A    between atoms: _385  and  _388
REMARK  156  A    between atoms: _388  and  _389
REMARK  157  A    between atoms: _394  and  _396
REMARK  158  A    between atoms: _396  and  _397
REMARK  159  A    between atoms: _396  and  _399
REMARK  160  A    between atoms: _399  and  _400
REMARK  161  A    between atoms: _402  and  _404
REMARK  162  A    between atoms: _404  and  _405
REMARK  163  A    between atoms: _404  and  _407
REMARK  164  A    between atoms: _407  and  _408
REMARK  165  A    between atoms: _411  and  _413
REMARK  166  A    between atoms: _413  and  _414
REMARK  167  A    between atoms: _416  and  _418
REMARK  168  A    between atoms: _418  and  _419
REMARK  169  A    between atoms: _418  and  _421
REMARK  170  A    between atoms: _421  and  _422
REMARK  171  A    between atoms: _425  and  _427
REMARK  172  A    between atoms: _427  and  _428
REMARK  173  A    between atoms: _427  and  _430
REMARK  174  A    between atoms: _430  and  _431
REMARK  175  A    between atoms: _434  and  _436
REMARK  176  A    between atoms: _436  and  _437
REMARK  177  A    between atoms: _436  and  _439
REMARK  178  A    between atoms: _439  and  _440
REMARK  179  A    between atoms: _443  and  _445
REMARK  180  A    between atoms: _445  and  _446
REMARK  181  A    between atoms: _445  and  _448
REMARK  182  A    between atoms: _448  and  _449
REMARK  183  A    between atoms: _449  and  _450
REMARK  184  A    between atoms: _452  and  _454
REMARK  185  A    between atoms: _454  and  _455
REMARK  186  A    between atoms: _454  and  _457
REMARK  187  A    between atoms: _457  and  _458
REMARK  188  A    between atoms: _458  and  _459
REMARK  189  A    between atoms: _462  and  _464
REMARK  190  A    between atoms: _464  and  _465
REMARK  191  A    between atoms: _464  and  _467
REMARK  192  A    between atoms: _467  and  _468
REMARK  193  A    between atoms: _470  and  _472
REMARK  194  A    between atoms: _472  and  _473
REMARK  195  A    between atoms: _472  and  _475
REMARK  196  A    between atoms: _475  and  _476
REMARK  197  A    between atoms: _479  and  _481
REMARK  198  A    between atoms: _481  and  _482
REMARK  199  A    between atoms: _481  and  _484
REMARK  200  A    between atoms: _484  and  _485
REMARK  201  A    between atoms: _487  and  _489
REMARK  202  A    between atoms: _489  and  _490
REMARK  203  A    between atoms: _489  and  _492
REMARK  204  A    between atoms: _492  and  _493
REMARK  205  A    between atoms: _496  and  _498
REMARK  206  A    between atoms: _498  and  _499
REMARK  207  A    between atoms: _498  and  _501
REMARK  208  A    between atoms: _504  and  _506
REMARK  209  A    between atoms: _506  and  _507
REMARK  210  A    between atoms: _506  and  _509
REMARK  211  A    between atoms: _509  and  _510
REMARK  212  A    between atoms: _510  and  _511
REMARK  213  A    between atoms: _511  and  _512
REMARK  214  A    between atoms: _512  and  _513
REMARK  215  A    between atoms: _517  and  _519
REMARK  216  A    between atoms: _519  and  _520
REMARK  217  A    between atoms: _522  and  _524
REMARK  218  A    between atoms: _524  and  _525
REMARK  219  A    between atoms: _524  and  _527
REMARK  220  A    between atoms: _527  and  _528
REMARK  221  A    between atoms: _533  and  _534
REMARK  222  A    between atoms: _536  and  _538
REMARK  223  A    between atoms: _538  and  _539
REMARK  224  A    between atoms: _541  and  _543
REMARK  225  A    between atoms: _543  and  _544
REMARK  226  A    between atoms: _543  and  _546
REMARK  227  A    between atoms: _546  and  _547
REMARK                            x       y       z     vdW  Elec       q    Type
REMARK                         _______ _______ _______ _____ _____    ______ ____
ROOT
ATOM      1  O   HOH     1     -11.015   9.623  17.733  0.00  0.00    +0.000 OA
ENDROOT
TORSDOF 0
REMARK  Name = ../refined-set-2016/3fv2/3fv2_pocket.pdb
REMARK  227 active torsions:
REMARK  status: ('A' for Active; 'I' for Inactive)
REMARK    1  A    between atoms: _1  and  _3
REMARK    2  A    between atoms: _3  and  _4
REMARK    3  A    between atoms: _3  and  _6
REMARK    4  A    between atoms: _6  and  _7
REMARK    5  A    between atoms: _10  and  _12
REMARK    6  A    between atoms: _12  and  _13
REMARK    7  A    between atoms: _12  and  _15
REMARK    8  A    between atoms: _15  and  _16
REMARK    9  A    between atoms: _19  and  _21
REMARK   10  A    between atoms: _21  and  _22
REMARK   11  A    between atoms: _21  and  _24
REMARK   12  A    between atoms: _24  and  _25
REMARK   13  A    between atoms: _25  and  _26
REMARK   14  A    between atoms: _29  and  _31
REMARK   15  A    between atoms: _31  and  _32
REMARK   16  A    between atoms: _31  and  _34
REMARK   17  A    between atoms: _34  and  _35
REMARK   18  A    between atoms: _35  and  _36
REMARK   19  A    between atoms: _40  and  _41
REMARK   20  A    between atoms: _46  and  _48
REMARK   21  A    between atoms: _48  and  _49
REMARK   22  A    between atoms: _48  and  _51
REMARK   23  A    between atoms: _51  and  _52
REMARK   24  A    between atoms: _57  and  _58
REMARK   25  A    between atoms: _60  and  _62
REMARK   26  A    between atoms: _62  and  _63
REMARK   27  A    between atoms: _62  and  _65
REMARK   28  A    between atoms: _65  and  _66
REMARK   29  A    between atoms: _66  and  _67
REMARK   30  A    between atoms: _67  and  _68
REMARK   31  A    between atoms: _68  and  _69
REMARK   32  A    between atoms: _73  and  _75
REMARK   33  A    between atoms: _75  and  _76
REMARK   34  A    between atoms: _75  and  _78
REMARK   35  A    between atoms: _78  and  _79
REMARK   36  A    between atoms: _84  and  _85
REMARK   37  A    between atoms: _87  and  _89
REMARK   38  A    between atoms: _89  and  _90
REMARK   39  A    between atoms: _92  and  _94
REMARK   40  A    between atoms: _94  and  _95
REMARK   41  A    between atoms: _98  and  _100
REMARK   42  A    between atoms: _100  and  _101
REMARK   43  A    between atoms: _100  and  _103
REMARK   44  A    between atoms: _103  and  _104
REMARK   45  A    between atoms: _114  and  _116
REMARK   46  A    between atoms: _116  and  _117
REMARK   47  A    between atoms: _119  and  _121
REMARK   48  A    between atoms: _121  and  _122
REMARK   49  A    between atoms: _121  and  _124
REMARK   50  A    between atoms: _124  and  _125
REMARK   51  A    between atoms: _125  and  _126
REMARK   52  A    between atoms: _128  and  _130
REMARK   53  A    between atoms: _130  and  _131
REMARK   54  A    between atoms: _130  and  _133
REMARK   55  A    between atoms: _136  and  _138
REMARK   56  A    between atoms: _138  and  _139
REMARK   57  A    between atoms: _143  and  _144
REMARK   58  A    between atoms: _149  and  _151
REMARK   59  A    between atoms: _151  and  _152
REMARK   60  A    between atoms: _151  and  _154
REMARK   61  A    between atoms: _154  and  _155
REMARK   62  A    between atoms: _158  and  _160
REMARK   63  A    between atoms: _160  and  _161
REMARK   64  A    between atoms: _160  and  _163
REMARK   65  A    between atoms: _163  and  _164
REMARK   66  A    between atoms: _167  and  _169
REMARK   67  A    between atoms: _169  and  _170
REMARK   68  A    between atoms: _169  and  _172
REMARK   69  A    between atoms: _172  and  _173
REMARK   70  A    between atoms: _176  and  _178
REMARK   71  A    between atoms: _178  and  _179
REMARK   72  A    between atoms: _178  and  _181
REMARK   73  A    between atoms: _181  and  _182
REMARK   74  A    between atoms: _185  and  _187
REMARK   75  A    between atoms: _187  and  _188
REMARK   76  A    between atoms: _187  and  _190
REMARK   77  A    between atoms: _190  and  _191
REMARK   78  A    between atoms: _191  and  _192
REMARK   79  A    between atoms: _192  and  _193
REMARK   80  A    between atoms: _202  and  _204
REMARK   81  A    between atoms: _204  and  _205
REMARK   82  A    between atoms: _204  and  _207
REMARK   83  A    between atoms: _207  and  _208
REMARK   84  A    between atoms: _214  and  _216
REMARK   85  A    between atoms: _216  and  _217
REMARK   86  A    between atoms: _216  and  _219
REMARK   87  A    between atoms: _219  and  _220
REMARK   88  A    between atoms: _223  and  _225
REMARK   89  A    between atoms: _225  and  _226
REMARK   90  A    between atoms: _228  and  _230
REMARK   91  A    between atoms: _230  and  _231
REMARK   92  A    between atoms: _230  and  _233
REMARK   93  A    between atoms: _233  and  _234
REMARK   94  A    between atoms: _237  and  _239
REMARK   95  A    between atoms: _239  and  _240
REMARK   96  A    between atoms: _239  and  _242
REMARK   97  A    between atoms: _242  and  _243
REMARK   98  A    between atoms: _245  and  _247
REMARK   99  A    between atoms: _247  and  _248
REMARK  100  A    between atoms: _247  and  _250
REMARK  101  A    between atoms: _250  and  _251
REMARK  102  A    between atoms: _254  and  _256
REMARK  103  A    between atoms: _256  and  _257
REMARK  104  A    between atoms: _260  and  _262
REMARK  105  A    between atoms: _262  and  _263
REMARK  106  A    between atoms: _262  and  _265
REMARK  107  A    between atoms: _268  and  _270
REMARK  108  A    between atoms: _270  and  _271
REMARK  109  A    between atoms: _270  and  _273
REMARK  110  A    between atoms: _273  and  _274
REMARK  111  A    between atoms: _274  and  _275
REMARK  112  A    between atoms: _275  and  _276
REMARK  113  A    between atoms: _285  and  _287
REMARK  114  A    between atoms: _287  and  _288
REMARK  115  A    between atoms: _287  and  _290
REMARK  116  A    between atoms: _290  and  _291
REMARK  117  A    between atoms: _294  and  _296
REMARK  118  A    between atoms: _296  and  _297
REMARK  119  A    between atoms: _299  and  _301
REMARK  120  A    between atoms: _301  and  _302
REMARK  121  A    between atoms: _301  and  _304
REMARK  122  A    between atoms: _304  and  _305
REMARK  123  A    between atoms: _307  and  _309
REMARK  124  A    between atoms: _309  and  _310
REMARK  125  A    between atoms: _309  and  _312
REMARK  126  A    between atoms: _312  and  _313
REMARK  127  A    between atoms: _316  and  _318
REMARK  128  A    between atoms: _318  and  _319
REMARK  129  A    between atoms: _318  and  _321
REMARK  130  A    between atoms: _321  and  _322
REMARK  131  A    between atoms: _322  and  _323
REMARK  132  A    between atoms: _325  and  _327
REMARK  133  A    between atoms: _327  and  _328
REMARK  134  A    between atoms: _327  and  _330
REMARK  135  A    between atoms: _330  and  _331
REMARK  136  A    between atoms: _334  and  _336
REMARK  137  A    between atoms: _336  and  _337
REMARK  138  A    between atoms: _336  and  _339
REMARK  139  A    between atoms: _339  and  _340
REMARK  140  A    between atoms: _346  and  _348
REMARK  141  A    between atoms: _348  and  _349
REMARK  142  A    between atoms: _348  and  _351
REMARK  143  A    between atoms: _351  and  _352
REMARK  144  A    between atoms: _358  and  _360
REMARK  145  A    between atoms: _360  and  _361
REMARK  146  A    between atoms: _360  and  _363
REMARK  147  A    between atoms: _366  and  _368
REMARK  148  A    between atoms: _368  and  _369
REMARK  149  A    between atoms: _368  and  _371
REMARK  150  A    between atoms: _371  and  _372
REMARK  151  A    between atoms: _372  and  _373
REMARK  152  A    between atoms: _373  and  _374
REMARK  153  A    between atoms: _383  and  _385
REMARK  154  A    between atoms: _385  and  _386
REMARK  155  A    between atoms: _385  and  _388
REMARK  156  A    between atoms: _388  and  _389
REMARK  157  A    between atoms: _394  and  _396
REMARK  158  A    between atoms: _396  and  _397
REMARK  159  A    between atoms: _396  and  _399
REMARK  160  A    between atoms: _399  and  _400
REMARK  161  A    between atoms: _402  and  _404
REMARK  162  A    between atoms: _404  and  _405
REMARK  163  A    between atoms: _404  and  _407
REMARK  164  A    between atoms: _407  and  _408
REMARK  165  A    between atoms: _411  and  _413
REMARK  166  A    between atoms: _413  and  _414
REMARK  167  A    between atoms: _416  and  _418
REMARK  168  A    between atoms: _418  and  _419
REMARK  169  A    between atoms: _418  and  _421
REMARK  170  A    between atoms: _421  and  _422
REMARK  171  A    between atoms: _425  and  _427
REMARK  172  A    between atoms: _427  and  _428
REMARK  173  A    between atoms: _427  and  _430
REMARK  174  A    between atoms: _430  and  _431
REMARK  175  A    between atoms: _434  and  _436
REMARK  176  A    between atoms: _436  and  _437
REMARK  177  A    between atoms: _436  and  _439
REMARK  178  A    between atoms: _439  and  _440
REMARK  179  A    between atoms: _443  and  _445
REMARK  180  A    between atoms: _445  and  _446
REMARK  181  A    between atoms: _445  and  _448
REMARK  182  A    between atoms: _448  and  _449
REMARK  183  A    between atoms: _449  and  _450
REMARK  184  A    between atoms: _452  and  _454
REMARK  185  A    between atoms: _454  and  _455
REMARK  186  A    between atoms: _454  and  _457
REMARK  187  A    between atoms: _457  and  _458
REMARK  188  A    between atoms: _458  and  _459
REMARK  189  A    between atoms: _462  and  _464
REMARK  190  A    between atoms: _464  and  _465
REMARK  191  A    between atoms: _464  and  _467
REMARK  192  A    between atoms: _467  and  _468
REMARK  193  A    between atoms: _470  and  _472
REMARK  194  A    between atoms: _472  and  _473
REMARK  195  A    between atoms: _472  and  _475
REMARK  196  A    between atoms: _475  and  _476
REMARK  197  A    between atoms: _479  and  _481
REMARK  198  A    between atoms: _481  and  _482
REMARK  199  A    between atoms: _481  and  _484
REMARK  200  A    between atoms: _484  and  _485
REMARK  201  A    between atoms: _487  and  _489
REMARK  202  A    between atoms: _489  and  _490
REMARK  203  A    between atoms: _489  and  _492
REMARK  204  A    between atoms: _492  and  _493
REMARK  205  A    between atoms: _496  and  _498
REMARK  206  A    between atoms: _498  and  _499
REMARK  207  A    between atoms: _498  and  _501
REMARK  208  A    between atoms: _504  and  _506
REMARK  209  A    between atoms: _506  and  _507
REMARK  210  A    between atoms: _506  and  _509
REMARK  211  A    between atoms: _509  and  _510
REMARK  212  A    between atoms: _510  and  _511
REMARK  213  A    between atoms: _511  and  _512
REMARK  214  A    between atoms: _512  and  _513
REMARK  215  A    between atoms: _517  and  _519
REMARK  216  A    between atoms: _519  and  _520
REMARK  217  A    between atoms: _522  and  _524
REMARK  218  A    between atoms: _524  and  _525
REMARK  219  A    between atoms: _524  and  _527
REMARK  220  A    between atoms: _527  and  _528
REMARK  221  A    between atoms: _533  and  _534
REMARK  222  A    between atoms: _536  and  _538
REMARK  223  A    between atoms: _538  and  _539
REMARK  224  A    between atoms: _541  and  _543
REMARK  225  A    between atoms: _543  and  _544
REMARK  226  A    between atoms: _543  and  _546
REMARK  227  A    between atoms: _546  and  _547
REMARK                            x       y       z     vdW  Elec       q    Type
REMARK                         _______ _______ _______ _____ _____    ______ ____
ROOT
ATOM      1  O   HOH     1      -4.236  15.818  26.382  0.00  0.00    +0.000 OA
ENDROOT
TORSDOF 0
REMARK  Name = ../refined-set-2016/3fv2/3fv2_pocket.pdb
REMARK  227 active torsions:
REMARK  status: ('A' for Active; 'I' for Inactive)
REMARK    1  A    between atoms: _1  and  _3
REMARK    2  A    between atoms: _3  and  _4
REMARK    3  A    between atoms: _3  and  _6
REMARK    4  A    between atoms: _6  and  _7
REMARK    5  A    between atoms: _10  and  _12
REMARK    6  A    between atoms: _12  and  _13
REMARK    7  A    between atoms: _12  and  _15
REMARK    8  A    between atoms: _15  and  _16
REMARK    9  A    between atoms: _19  and  _21
REMARK   10  A    between atoms: _21  and  _22
REMARK   11  A    between atoms: _21  and  _24
REMARK   12  A    between atoms: _24  and  _25
REMARK   13  A    between atoms: _25  and  _26
REMARK   14  A    between atoms: _29  and  _31
REMARK   15  A    between atoms: _31  and  _32
REMARK   16  A    between atoms: _31  and  _34
REMARK   17  A    between atoms: _34  and  _35
REMARK   18  A    between atoms: _35  and  _36
REMARK   19  A    between atoms: _40  and  _41
REMARK   20  A    between atoms: _46  and  _48
REMARK   21  A    between atoms: _48  and  _49
REMARK   22  A    between atoms: _48  and  _51
REMARK   23  A    between atoms: _51  and  _52
REMARK   24  A    between atoms: _57  and  _58
REMARK   25  A    between atoms: _60  and  _62
REMARK   26  A    between atoms: _62  and  _63
REMARK   27  A    between atoms: _62  and  _65
REMARK   28  A    between atoms: _65  and  _66
REMARK   29  A    between atoms: _66  and  _67
REMARK   30  A    between atoms: _67  and  _68
REMARK   31  A    between atoms: _68  and  _69
REMARK   32  A    between atoms: _73  and  _75
REMARK   33  A    between atoms: _75  and  _76
REMARK   34  A    between atoms: _75  and  _78
REMARK   35  A    between atoms: _78  and  _79
REMARK   36  A    between atoms: _84  and  _85
REMARK   37  A    between atoms: _87  and  _89
REMARK   38  A    between atoms: _89  and  _90
REMARK   39  A    between atoms: _92  and  _94
REMARK   40  A    between atoms: _94  and  _95
REMARK   41  A    between atoms: _98  and  _100
REMARK   42  A    between atoms: _100  and  _101
REMARK   43  A    between atoms: _100  and  _103
REMARK   44  A    between atoms: _103  and  _104
REMARK   45  A    between atoms: _114  and  _116
REMARK   46  A    between atoms: _116  and  _117
REMARK   47  A    between atoms: _119  and  _121
REMARK   48  A    between atoms: _121  and  _122
REMARK   49  A    between atoms: _121  and  _124
REMARK   50  A    between atoms: _124  and  _125
REMARK   51  A    between atoms: _125  and  _126
REMARK   52  A    between atoms: _128  and  _130
REMARK   53  A    between atoms: _130  and  _131
REMARK   54  A    between atoms: _130  and  _133
REMARK   55  A    between atoms: _136  and  _138
REMARK   56  A    between atoms: _138  and  _139
REMARK   57  A    between atoms: _143  and  _144
REMARK   58  A    between atoms: _149  and  _151
REMARK   59  A    between atoms: _151  and  _152
REMARK   60  A    between atoms: _151  and  _154
REMARK   61  A    between atoms: _154  and  _155
REMARK   62  A    between atoms: _158  and  _160
REMARK   63  A    between atoms: _160  and  _161
REMARK   64  A    between atoms: _160  and  _163
REMARK   65  A    between atoms: _163  and  _164
REMARK   66  A    between atoms: _167  and  _169
REMARK   67  A    between atoms: _169  and  _170
REMARK   68  A    between atoms: _169  and  _172
REMARK   69  A    between atoms: _172  and  _173
REMARK   70  A    between atoms: _176  and  _178
REMARK   71  A    between atoms: _178  and  _179
REMARK   72  A    between atoms: _178  and  _181
REMARK   73  A    between atoms: _181  and  _182
REMARK   74  A    between atoms: _185  and  _187
REMARK   75  A    between atoms: _187  and  _188
REMARK   76  A    between atoms: _187  and  _190
REMARK   77  A    between atoms: _190  and  _191
REMARK   78  A    between atoms: _191  and  _192
REMARK   79  A    between atoms: _192  and  _193
REMARK   80  A    between atoms: _202  and  _204
REMARK   81  A    between atoms: _204  and  _205
REMARK   82  A    between atoms: _204  and  _207
REMARK   83  A    between atoms: _207  and  _208
REMARK   84  A    between atoms: _214  and  _216
REMARK   85  A    between atoms: _216  and  _217
REMARK   86  A    between atoms: _216  and  _219
REMARK   87  A    between atoms: _219  and  _220
REMARK   88  A    between atoms: _223  and  _225
REMARK   89  A    between atoms: _225  and  _226
REMARK   90  A    between atoms: _228  and  _230
REMARK   91  A    between atoms: _230  and  _231
REMARK   92  A    between atoms: _230  and  _233
REMARK   93  A    between atoms: _233  and  _234
REMARK   94  A    between atoms: _237  and  _239
REMARK   95  A    between atoms: _239  and  _240
REMARK   96  A    between atoms: _239  and  _242
REMARK   97  A    between atoms: _242  and  _243
REMARK   98  A    between atoms: _245  and  _247
REMARK   99  A    between atoms: _247  and  _248
REMARK  100  A    between atoms: _247  and  _250
REMARK  101  A    between atoms: _250  and  _251
REMARK  102  A    between atoms: _254  and  _256
REMARK  103  A    between atoms: _256  and  _257
REMARK  104  A    between atoms: _260  and  _262
REMARK  105  A    between atoms: _262  and  _263
REMARK  106  A    between atoms: _262  and  _265
REMARK  107  A    between atoms: _268  and  _270
REMARK  108  A    between atoms: _270  and  _271
REMARK  109  A    between atoms: _270  and  _273
REMARK  110  A    between atoms: _273  and  _274
REMARK  111  A    between atoms: _274  and  _275
REMARK  112  A    between atoms: _275  and  _276
REMARK  113  A    between atoms: _285  and  _287
REMARK  114  A    between atoms: _287  and  _288
REMARK  115  A    between atoms: _287  and  _290
REMARK  116  A    between atoms: _290  and  _291
REMARK  117  A    between atoms: _294  and  _296
REMARK  118  A    between atoms: _296  and  _297
REMARK  119  A    between atoms: _299  and  _301
REMARK  120  A    between atoms: _301  and  _302
REMARK  121  A    between atoms: _301  and  _304
REMARK  122  A    between atoms: _304  and  _305
REMARK  123  A    between atoms: _307  and  _309
REMARK  124  A    between atoms: _309  and  _310
REMARK  125  A    between atoms: _309  and  _312
REMARK  126  A    between atoms: _312  and  _313
REMARK  127  A    between atoms: _316  and  _318
REMARK  128  A    between atoms: _318  and  _319
REMARK  129  A    between atoms: _318  and  _321
REMARK  130  A    between atoms: _321  and  _322
REMARK  131  A    between atoms: _322  and  _323
REMARK  132  A    between atoms: _325  and  _327
REMARK  133  A    between atoms: _327  and  _328
REMARK  134  A    between atoms: _327  and  _330
REMARK  135  A    between atoms: _330  and  _331
REMARK  136  A    between atoms: _334  and  _336
REMARK  137  A    between atoms: _336  and  _337
REMARK  138  A    between atoms: _336  and  _339
REMARK  139  A    between atoms: _339  and  _340
REMARK  140  A    between atoms: _346  and  _348
REMARK  141  A    between atoms: _348  and  _349
REMARK  142  A    between atoms: _348  and  _351
REMARK  143  A    between atoms: _351  and  _352
REMARK  144  A    between atoms: _358  and  _360
REMARK  145  A    between atoms: _360  and  _361
REMARK  146  A    between atoms: _360  and  _363
REMARK  147  A    between atoms: _366  and  _368
REMARK  148  A    between atoms: _368  and  _369
REMARK  149  A    between atoms: _368  and  _371
REMARK  150  A    between atoms: _371  and  _372
REMARK  151  A    between atoms: _372  and  _373
REMARK  152  A    between atoms: _373  and  _374
REMARK  153  A    between atoms: _383  and  _385
REMARK  154  A    between atoms: _385  and  _386
REMARK  155  A    between atoms: _385  and  _388
REMARK  156  A    between atoms: _388  and  _389
REMARK  157  A    between atoms: _394  and  _396
REMARK  158  A    between atoms: _396  and  _397
REMARK  159  A    between atoms: _396  and  _399
REMARK  160  A    between atoms: _399  and  _400
REMARK  161  A    between atoms: _402  and  _404
REMARK  162  A    between atoms: _404  and  _405
REMARK  163  A    between atoms: _404  and  _407
REMARK  164  A    between atoms: _407  and  _408
REMARK  165  A    between atoms: _411  and  _413
REMARK  166  A    between atoms: _413  and  _414
REMARK  167  A    between atoms: _416  and  _418
REMARK  168  A    between atoms: _418  and  _419
REMARK  169  A    between atoms: _418  and  _421
REMARK  170  A    between atoms: _421  and  _422
REMARK  171  A    between atoms: _425  and  _427
REMARK  172  A    between atoms: _427  and  _428
REMARK  173  A    between atoms: _427  and  _430
REMARK  174  A    between atoms: _430  and  _431
REMARK  175  A    between atoms: _434  and  _436
REMARK  176  A    between atoms: _436  and  _437
REMARK  177  A    between atoms: _436  and  _439
REMARK  178  A    between atoms: _439  and  _440
REMARK  179  A    between atoms: _443  and  _445
REMARK  180  A    between atoms: _445  and  _446
REMARK  181  A    between atoms: _445  and  _448
REMARK  182  A    between atoms: _448  and  _449
REMARK  183  A    between atoms: _449  and  _450
REMARK  184  A    between atoms: _452  and  _454
REMARK  185  A    between atoms: _454  and  _455
REMARK  186  A    between atoms: _454  and  _457
REMARK  187  A    between atoms: _457  and  _458
REMARK  188  A    between atoms: _458  and  _459
REMARK  189  A    between atoms: _462  and  _464
REMARK  190  A    between atoms: _464  and  _465
REMARK  191  A    between atoms: _464  and  _467
REMARK  192  A    between atoms: _467  and  _468
REMARK  193  A    between atoms: _470  and  _472
REMARK  194  A    between atoms: _472  and  _473
REMARK  195  A    between atoms: _472  and  _475
REMARK  196  A    between atoms: _475  and  _476
REMARK  197  A    between atoms: _479  and  _481
REMARK  198  A    between atoms: _481  and  _482
REMARK  199  A    between atoms: _481  and  _484
REMARK  200  A    between atoms: _484  and  _485
REMARK  201  A    between atoms: _487  and  _489
REMARK  202  A    between atoms: _489  and  _490
REMARK  203  A    between atoms: _489  and  _492
REMARK  204  A    between atoms: _492  and  _493
REMARK  205  A    between atoms: _496  and  _498
REMARK  206  A    between atoms: _498  and  _499
REMARK  207  A    between atoms: _498  and  _501
REMARK  208  A    between atoms: _504  and  _506
REMARK  209  A    between atoms: _506  and  _507
REMARK  210  A    between atoms: _506  and  _509
REMARK  211  A    between atoms: _509  and  _510
REMARK  212  A    between atoms: _510  and  _511
REMARK  213  A    between atoms: _511  and  _512
REMARK  214  A    between atoms: _512  and  _513
REMARK  215  A    between atoms: _517  and  _519
REMARK  216  A    between atoms: _519  and  _520
REMARK  217  A    between atoms: _522  and  _524
REMARK  218  A    between atoms: _524  and  _525
REMARK  219  A    between atoms: _524  and  _527
REMARK  220  A    between atoms: _527  and  _528
REMARK  221  A    between atoms: _533  and  _534
REMARK  222  A    between atoms: _536  and  _538
REMARK  223  A    between atoms: _538  and  _539
REMARK  224  A    between atoms: _541  and  _543
REMARK  225  A    between atoms: _543  and  _544
REMARK  226  A    between atoms: _543  and  _546
REMARK  227  A    between atoms: _546  and  _547
REMARK                            x       y       z     vdW  Elec       q    Type
REMARK                         _______ _______ _______ _____ _____    ______ ____
ROOT
ATOM      1  O   HOH     1      -7.342  13.305  25.622  0.00  0.00    +0.000 OA
ENDROOT
TORSDOF 0
REMARK  Name = ../refined-set-2016/3fv2/3fv2_pocket.pdb
REMARK  227 active torsions:
REMARK  status: ('A' for Active; 'I' for Inactive)
REMARK    1  A    between atoms: _1  and  _3
REMARK    2  A    between atoms: _3  and  _4
REMARK    3  A    between atoms: _3  and  _6
REMARK    4  A    between atoms: _6  and  _7
REMARK    5  A    between atoms: _10  and  _12
REMARK    6  A    between atoms: _12  and  _13
REMARK    7  A    between atoms: _12  and  _15
REMARK    8  A    between atoms: _15  and  _16
REMARK    9  A    between atoms: _19  and  _21
REMARK   10  A    between atoms: _21  and  _22
REMARK   11  A    between atoms: _21  and  _24
REMARK   12  A    between atoms: _24  and  _25
REMARK   13  A    between atoms: _25  and  _26
REMARK   14  A    between atoms: _29  and  _31
REMARK   15  A    between atoms: _31  and  _32
REMARK   16  A    between atoms: _31  and  _34
REMARK   17  A    between atoms: _34  and  _35
REMARK   18  A    between atoms: _35  and  _36
REMARK   19  A    between atoms: _40  and  _41
REMARK   20  A    between atoms: _46  and  _48
REMARK   21  A    between atoms: _48  and  _49
REMARK   22  A    between atoms: _48  and  _51
REMARK   23  A    between atoms: _51  and  _52
REMARK   24  A    between atoms: _57  and  _58
REMARK   25  A    between atoms: _60  and  _62
REMARK   26  A    between atoms: _62  and  _63
REMARK   27  A    between atoms: _62  and  _65
REMARK   28  A    between atoms: _65  and  _66
REMARK   29  A    between atoms: _66  and  _67
REMARK   30  A    between atoms: _67  and  _68
REMARK   31  A    between atoms: _68  and  _69
REMARK   32  A    between atoms: _73  and  _75
REMARK   33  A    between atoms: _75  and  _76
REMARK   34  A    between atoms: _75  and  _78
REMARK   35  A    between atoms: _78  and  _79
REMARK   36  A    between atoms: _84  and  _85
REMARK   37  A    between atoms: _87  and  _89
REMARK   38  A    between atoms: _89  and  _90
REMARK   39  A    between atoms: _92  and  _94
REMARK   40  A    between atoms: _94  and  _95
REMARK   41  A    between atoms: _98  and  _100
REMARK   42  A    between atoms: _100  and  _101
REMARK   43  A    between atoms: _100  and  _103
REMARK   44  A    between atoms: _103  and  _104
REMARK   45  A    between atoms: _114  and  _116
REMARK   46  A    between atoms: _116  and  _117
REMARK   47  A    between atoms: _119  and  _121
REMARK   48  A    between atoms: _121  and  _122
REMARK   49  A    between atoms: _121  and  _124
REMARK   50  A    between atoms: _124  and  _125
REMARK   51  A    between atoms: _125  and  _126
REMARK   52  A    between atoms: _128  and  _130
REMARK   53  A    between atoms: _130  and  _131
REMARK   54  A    between atoms: _130  and  _133
REMARK   55  A    between atoms: _136  and  _138
REMARK   56  A    between atoms: _138  and  _139
REMARK   57  A    between atoms: _143  and  _144
REMARK   58  A    between atoms: _149  and  _151
REMARK   59  A    between atoms: _151  and  _152
REMARK   60  A    between atoms: _151  and  _154
REMARK   61  A    between atoms: _154  and  _155
REMARK   62  A    between atoms: _158  and  _160
REMARK   63  A    between atoms: _160  and  _161
REMARK   64  A    between atoms: _160  and  _163
REMARK   65  A    between atoms: _163  and  _164
REMARK   66  A    between atoms: _167  and  _169
REMARK   67  A    between atoms: _169  and  _170
REMARK   68  A    between atoms: _169  and  _172
REMARK   69  A    between atoms: _172  and  _173
REMARK   70  A    between atoms: _176  and  _178
REMARK   71  A    between atoms: _178  and  _179
REMARK   72  A    between atoms: _178  and  _181
REMARK   73  A    between atoms: _181  and  _182
REMARK   74  A    between atoms: _185  and  _187
REMARK   75  A    between atoms: _187  and  _188
REMARK   76  A    between atoms: _187  and  _190
REMARK   77  A    between atoms: _190  and  _191
REMARK   78  A    between atoms: _191  and  _192
REMARK   79  A    between atoms: _192  and  _193
REMARK   80  A    between atoms: _202  and  _204
REMARK   81  A    between atoms: _204  and  _205
REMARK   82  A    between atoms: _204  and  _207
REMARK   83  A    between atoms: _207  and  _208
REMARK   84  A    between atoms: _214  and  _216
REMARK   85  A    between atoms: _216  and  _217
REMARK   86  A    between atoms: _216  and  _219
REMARK   87  A    between atoms: _219  and  _220
REMARK   88  A    between atoms: _223  and  _225
REMARK   89  A    between atoms: _225  and  _226
REMARK   90  A    between atoms: _228  and  _230
REMARK   91  A    between atoms: _230  and  _231
REMARK   92  A    between atoms: _230  and  _233
REMARK   93  A    between atoms: _233  and  _234
REMARK   94  A    between atoms: _237  and  _239
REMARK   95  A    between atoms: _239  and  _240
REMARK   96  A    between atoms: _239  and  _242
REMARK   97  A    between atoms: _242  and  _243
REMARK   98  A    between atoms: _245  and  _247
REMARK   99  A    between atoms: _247  and  _248
REMARK  100  A    between atoms: _247  and  _250
REMARK  101  A    between atoms: _250  and  _251
REMARK  102  A    between atoms: _254  and  _256
REMARK  103  A    between atoms: _256  and  _257
REMARK  104  A    between atoms: _260  and  _262
REMARK  105  A    between atoms: _262  and  _263
REMARK  106  A    between atoms: _262  and  _265
REMARK  107  A    between atoms: _268  and  _270
REMARK  108  A    between atoms: _270  and  _271
REMARK  109  A    between atoms: _270  and  _273
REMARK  110  A    between atoms: _273  and  _274
REMARK  111  A    between atoms: _274  and  _275
REMARK  112  A    between atoms: _275  and  _276
REMARK  113  A    between atoms: _285  and  _287
REMARK  114  A    between atoms: _287  and  _288
REMARK  115  A    between atoms: _287  and  _290
REMARK  116  A    between atoms: _290  and  _291
REMARK  117  A    between atoms: _294  and  _296
REMARK  118  A    between atoms: _296  and  _297
REMARK  119  A    between atoms: _299  and  _301
REMARK  120  A    between atoms: _301  and  _302
REMARK  121  A    between atoms: _301  and  _304
REMARK  122  A    between atoms: _304  and  _305
REMARK  123  A    between atoms: _307  and  _309
REMARK  124  A    between atoms: _309  and  _310
REMARK  125  A    between atoms: _309  and  _312
REMARK  126  A    between atoms: _312  and  _313
REMARK  127  A    between atoms: _316  and  _318
REMARK  128  A    between atoms: _318  and  _319
REMARK  129  A    between atoms: _318  and  _321
REMARK  130  A    between atoms: _321  and  _322
REMARK  131  A    between atoms: _322  and  _323
REMARK  132  A    between atoms: _325  and  _327
REMARK  133  A    between atoms: _327  and  _328
REMARK  134  A    between atoms: _327  and  _330
REMARK  135  A    between atoms: _330  and  _331
REMARK  136  A    between atoms: _334  and  _336
REMARK  137  A    between atoms: _336  and  _337
REMARK  138  A    between atoms: _336  and  _339
REMARK  139  A    between atoms: _339  and  _340
REMARK  140  A    between atoms: _346  and  _348
REMARK  141  A    between atoms: _348  and  _349
REMARK  142  A    between atoms: _348  and  _351
REMARK  143  A    between atoms: _351  and  _352
REMARK  144  A    between atoms: _358  and  _360
REMARK  145  A    between atoms: _360  and  _361
REMARK  146  A    between atoms: _360  and  _363
REMARK  147  A    between atoms: _366  and  _368
REMARK  148  A    between atoms: _368  and  _369
REMARK  149  A    between atoms: _368  and  _371
REMARK  150  A    between atoms: _371  and  _372
REMARK  151  A    between atoms: _372  and  _373
REMARK  152  A    between atoms: _373  and  _374
REMARK  153  A    between atoms: _383  and  _385
REMARK  154  A    between atoms: _385  and  _386
REMARK  155  A    between atoms: _385  and  _388
REMARK  156  A    between atoms: _388  and  _389
REMARK  157  A    between atoms: _394  and  _396
REMARK  158  A    between atoms: _396  and  _397
REMARK  159  A    between atoms: _396  and  _399
REMARK  160  A    between atoms: _399  and  _400
REMARK  161  A    between atoms: _402  and  _404
REMARK  162  A    between atoms: _404  and  _405
REMARK  163  A    between atoms: _404  and  _407
REMARK  164  A    between atoms: _407  and  _408
REMARK  165  A    between atoms: _411  and  _413
REMARK  166  A    between atoms: _413  and  _414
REMARK  167  A    between atoms: _416  and  _418
REMARK  168  A    between atoms: _418  and  _419
REMARK  169  A    between atoms: _418  and  _421
REMARK  170  A    between atoms: _421  and  _422
REMARK  171  A    between atoms: _425  and  _427
REMARK  172  A    between atoms: _427  and  _428
REMARK  173  A    between atoms: _427  and  _430
REMARK  174  A    between atoms: _430  and  _431
REMARK  175  A    between atoms: _434  and  _436
REMARK  176  A    between atoms: _436  and  _437
REMARK  177  A    between atoms: _436  and  _439
REMARK  178  A    between atoms: _439  and  _440
REMARK  179  A    between atoms: _443  and  _445
REMARK  180  A    between atoms: _445  and  _446
REMARK  181  A    between atoms: _445  and  _448
REMARK  182  A    between atoms: _448  and  _449
REMARK  183  A    between atoms: _449  and  _450
REMARK  184  A    between atoms: _452  and  _454
REMARK  185  A    between atoms: _454  and  _455
REMARK  186  A    between atoms: _454  and  _457
REMARK  187  A    between atoms: _457  and  _458
REMARK  188  A    between atoms: _458  and  _459
REMARK  189  A    between atoms: _462  and  _464
REMARK  190  A    between atoms: _464  and  _465
REMARK  191  A    between atoms: _464  and  _467
REMARK  192  A    between atoms: _467  and  _468
REMARK  193  A    between atoms: _470  and  _472
REMARK  194  A    between atoms: _472  and  _473
REMARK  195  A    between atoms: _472  and  _475
REMARK  196  A    between atoms: _475  and  _476
REMARK  197  A    between atoms: _479  and  _481
REMARK  198  A    between atoms: _481  and  _482
REMARK  199  A    between atoms: _481  and  _484
REMARK  200  A    between atoms: _484  and  _485
REMARK  201  A    between atoms: _487  and  _489
REMARK  202  A    between atoms: _489  and  _490
REMARK  203  A    between atoms: _489  and  _492
REMARK  204  A    between atoms: _492  and  _493
REMARK  205  A    between atoms: _496  and  _498
REMARK  206  A    between atoms: _498  and  _499
REMARK  207  A    between atoms: _498  and  _501
REMARK  208  A    between atoms: _504  and  _506
REMARK  209  A    between atoms: _506  and  _507
REMARK  210  A    between atoms: _506  and  _509
REMARK  211  A    between atoms: _509  and  _510
REMARK  212  A    between atoms: _510  and  _511
REMARK  213  A    between atoms: _511  and  _512
REMARK  214  A    between atoms: _512  and  _513
REMARK  215  A    between atoms: _517  and  _519
REMARK  216  A    between atoms: _519  and  _520
REMARK  217  A    between atoms: _522  and  _524
REMARK  218  A    between atoms: _524  and  _525
REMARK  219  A    between atoms: _524  and  _527
REMARK  220  A    between atoms: _527  and  _528
REMARK  221  A    between atoms: _533  and  _534
REMARK  222  A    between atoms: _536  and  _538
REMARK  223  A    between atoms: _538  and  _539
REMARK  224  A    between atoms: _541  and  _543
REMARK  225  A    between atoms: _543  and  _544
REMARK  226  A    between atoms: _543  and  _546
REMARK  227  A    between atoms: _546  and  _547
REMARK                            x       y       z     vdW  Elec       q    Type
REMARK                         _______ _______ _______ _____ _____    ______ ____
ROOT
ATOM      1  O   HOH     1     -11.859   9.310  22.634  0.00  0.00    +0.000 OA
ENDROOT
TORSDOF 0
REMARK  Name = ../refined-set-2016/3fv2/3fv2_pocket.pdb
REMARK  227 active torsions:
REMARK  status: ('A' for Active; 'I' for Inactive)
REMARK    1  A    between atoms: _1  and  _3
REMARK    2  A    between atoms: _3  and  _4
REMARK    3  A    between atoms: _3  and  _6
REMARK    4  A    between atoms: _6  and  _7
REMARK    5  A    between atoms: _10  and  _12
REMARK    6  A    between atoms: _12  and  _13
REMARK    7  A    between atoms: _12  and  _15
REMARK    8  A    between atoms: _15  and  _16
REMARK    9  A    between atoms: _19  and  _21
REMARK   10  A    between atoms: _21  and  _22
REMARK   11  A    between atoms: _21  and  _24
REMARK   12  A    between atoms: _24  and  _25
REMARK   13  A    between atoms: _25  and  _26
REMARK   14  A    between atoms: _29  and  _31
REMARK   15  A    between atoms: _31  and  _32
REMARK   16  A    between atoms: _31  and  _34
REMARK   17  A    between atoms: _34  and  _35
REMARK   18  A    between atoms: _35  and  _36
REMARK   19  A    between atoms: _40  and  _41
REMARK   20  A    between atoms: _46  and  _48
REMARK   21  A    between atoms: _48  and  _49
REMARK   22  A    between atoms: _48  and  _51
REMARK   23  A    between atoms: _51  and  _52
REMARK   24  A    between atoms: _57  and  _58
REMARK   25  A    between atoms: _60  and  _62
REMARK   26  A    between atoms: _62  and  _63
REMARK   27  A    between atoms: _62  and  _65
REMARK   28  A    between atoms: _65  and  _66
REMARK   29  A    between atoms: _66  and  _67
REMARK   30  A    between atoms: _67  and  _68
REMARK   31  A    between atoms: _68  and  _69
REMARK   32  A    between atoms: _73  and  _75
REMARK   33  A    between atoms: _75  and  _76
REMARK   34  A    between atoms: _75  and  _78
REMARK   35  A    between atoms: _78  and  _79
REMARK   36  A    between atoms: _84  and  _85
REMARK   37  A    between atoms: _87  and  _89
REMARK   38  A    between atoms: _89  and  _90
REMARK   39  A    between atoms: _92  and  _94
REMARK   40  A    between atoms: _94  and  _95
REMARK   41  A    between atoms: _98  and  _100
REMARK   42  A    between atoms: _100  and  _101
REMARK   43  A    between atoms: _100  and  _103
REMARK   44  A    between atoms: _103  and  _104
REMARK   45  A    between atoms: _114  and  _116
REMARK   46  A    between atoms: _116  and  _117
REMARK   47  A    between atoms: _119  and  _121
REMARK   48  A    between atoms: _121  and  _122
REMARK   49  A    between atoms: _121  and  _124
REMARK   50  A    between atoms: _124  and  _125
REMARK   51  A    between atoms: _125  and  _126
REMARK   52  A    between atoms: _128  and  _130
REMARK   53  A    between atoms: _130  and  _131
REMARK   54  A    between atoms: _130  and  _133
REMARK   55  A    between atoms: _136  and  _138
REMARK   56  A    between atoms: _138  and  _139
REMARK   57  A    between atoms: _143  and  _144
REMARK   58  A    between atoms: _149  and  _151
REMARK   59  A    between atoms: _151  and  _152
REMARK   60  A    between atoms: _151  and  _154
REMARK   61  A    between atoms: _154  and  _155
REMARK   62  A    between atoms: _158  and  _160
REMARK   63  A    between atoms: _160  and  _161
REMARK   64  A    between atoms: _160  and  _163
REMARK   65  A    between atoms: _163  and  _164
REMARK   66  A    between atoms: _167  and  _169
REMARK   67  A    between atoms: _169  and  _170
REMARK   68  A    between atoms: _169  and  _172
REMARK   69  A    between atoms: _172  and  _173
REMARK   70  A    between atoms: _176  and  _178
REMARK   71  A    between atoms: _178  and  _179
REMARK   72  A    between atoms: _178  and  _181
REMARK   73  A    between atoms: _181  and  _182
REMARK   74  A    between atoms: _185  and  _187
REMARK   75  A    between atoms: _187  and  _188
REMARK   76  A    between atoms: _187  and  _190
REMARK   77  A    between atoms: _190  and  _191
REMARK   78  A    between atoms: _191  and  _192
REMARK   79  A    between atoms: _192  and  _193
REMARK   80  A    between atoms: _202  and  _204
REMARK   81  A    between atoms: _204  and  _205
REMARK   82  A    between atoms: _204  and  _207
REMARK   83  A    between atoms: _207  and  _208
REMARK   84  A    between atoms: _214  and  _216
REMARK   85  A    between atoms: _216  and  _217
REMARK   86  A    between atoms: _216  and  _219
REMARK   87  A    between atoms: _219  and  _220
REMARK   88  A    between atoms: _223  and  _225
REMARK   89  A    between atoms: _225  and  _226
REMARK   90  A    between atoms: _228  and  _230
REMARK   91  A    between atoms: _230  and  _231
REMARK   92  A    between atoms: _230  and  _233
REMARK   93  A    between atoms: _233  and  _234
REMARK   94  A    between atoms: _237  and  _239
REMARK   95  A    between atoms: _239  and  _240
REMARK   96  A    between atoms: _239  and  _242
REMARK   97  A    between atoms: _242  and  _243
REMARK   98  A    between atoms: _245  and  _247
REMARK   99  A    between atoms: _247  and  _248
REMARK  100  A    between atoms: _247  and  _250
REMARK  101  A    between atoms: _250  and  _251
REMARK  102  A    between atoms: _254  and  _256
REMARK  103  A    between atoms: _256  and  _257
REMARK  104  A    between atoms: _260  and  _262
REMARK  105  A    between atoms: _262  and  _263
REMARK  106  A    between atoms: _262  and  _265
REMARK  107  A    between atoms: _268  and  _270
REMARK  108  A    between atoms: _270  and  _271
REMARK  109  A    between atoms: _270  and  _273
REMARK  110  A    between atoms: _273  and  _274
REMARK  111  A    between atoms: _274  and  _275
REMARK  112  A    between atoms: _275  and  _276
REMARK  113  A    between atoms: _285  and  _287
REMARK  114  A    between atoms: _287  and  _288
REMARK  115  A    between atoms: _287  and  _290
REMARK  116  A    between atoms: _290  and  _291
REMARK  117  A    between atoms: _294  and  _296
REMARK  118  A    between atoms: _296  and  _297
REMARK  119  A    between atoms: _299  and  _301
REMARK  120  A    between atoms: _301  and  _302
REMARK  121  A    between atoms: _301  and  _304
REMARK  122  A    between atoms: _304  and  _305
REMARK  123  A    between atoms: _307  and  _309
REMARK  124  A    between atoms: _309  and  _310
REMARK  125  A    between atoms: _309  and  _312
REMARK  126  A    between atoms: _312  and  _313
REMARK  127  A    between atoms: _316  and  _318
REMARK  128  A    between atoms: _318  and  _319
REMARK  129  A    between atoms: _318  and  _321
REMARK  130  A    between atoms: _321  and  _322
REMARK  131  A    between atoms: _322  and  _323
REMARK  132  A    between atoms: _325  and  _327
REMARK  133  A    between atoms: _327  and  _328
REMARK  134  A    between atoms: _327  and  _330
REMARK  135  A    between atoms: _330  and  _331
REMARK  136  A    between atoms: _334  and  _336
REMARK  137  A    between atoms: _336  and  _337
REMARK  138  A    between atoms: _336  and  _339
REMARK  139  A    between atoms: _339  and  _340
REMARK  140  A    between atoms: _346  and  _348
REMARK  141  A    between atoms: _348  and  _349
REMARK  142  A    between atoms: _348  and  _351
REMARK  143  A    between atoms: _351  and  _352
REMARK  144  A    between atoms: _358  and  _360
REMARK  145  A    between atoms: _360  and  _361
REMARK  146  A    between atoms: _360  and  _363
REMARK  147  A    between atoms: _366  and  _368
REMARK  148  A    between atoms: _368  and  _369
REMARK  149  A    between atoms: _368  and  _371
REMARK  150  A    between atoms: _371  and  _372
REMARK  151  A    between atoms: _372  and  _373
REMARK  152  A    between atoms: _373  and  _374
REMARK  153  A    between atoms: _383  and  _385
REMARK  154  A    between atoms: _385  and  _386
REMARK  155  A    between atoms: _385  and  _388
REMARK  156  A    between atoms: _388  and  _389
REMARK  157  A    between atoms: _394  and  _396
REMARK  158  A    between atoms: _396  and  _397
REMARK  159  A    between atoms: _396  and  _399
REMARK  160  A    between atoms: _399  and  _400
REMARK  161  A    between atoms: _402  and  _404
REMARK  162  A    between atoms: _404  and  _405
REMARK  163  A    between atoms: _404  and  _407
REMARK  164  A    between atoms: _407  and  _408
REMARK  165  A    between atoms: _411  and  _413
REMARK  166  A    between atoms: _413  and  _414
REMARK  167  A    between atoms: _416  and  _418
REMARK  168  A    between atoms: _418  and  _419
REMARK  169  A    between atoms: _418  and  _421
REMARK  170  A    between atoms: _421  and  _422
REMARK  171  A    between atoms: _425  and  _427
REMARK  172  A    between atoms: _427  and  _428
REMARK  173  A    between atoms: _427  and  _430
REMARK  174  A    between atoms: _430  and  _431
REMARK  175  A    between atoms: _434  and  _436
REMARK  176  A    between atoms: _436  and  _437
REMARK  177  A    between atoms: _436  and  _439
REMARK  178  A    between atoms: _439  and  _440
REMARK  179  A    between atoms: _443  and  _445
REMARK  180  A    between atoms: _445  and  _446
REMARK  181  A    between atoms: _445  and  _448
REMARK  182  A    between atoms: _448  and  _449
REMARK  183  A    between atoms: _449  and  _450
REMARK  184  A    between atoms: _452  and  _454
REMARK  185  A    between atoms: _454  and  _455
REMARK  186  A    between atoms: _454  and  _457
REMARK  187  A    between atoms: _457  and  _458
REMARK  188  A    between atoms: _458  and  _459
REMARK  189  A    between atoms: _462  and  _464
REMARK  190  A    between atoms: _464  and  _465
REMARK  191  A    between atoms: _464  and  _467
REMARK  192  A    between atoms: _467  and  _468
REMARK  193  A    between atoms: _470  and  _472
REMARK  194  A    between atoms: _472  and  _473
REMARK  195  A    between atoms: _472  and  _475
REMARK  196  A    between atoms: _475  and  _476
REMARK  197  A    between atoms: _479  and  _481
REMARK  198  A    between atoms: _481  and  _482
REMARK  199  A    between atoms: _481  and  _484
REMARK  200  A    between atoms: _484  and  _485
REMARK  201  A    between atoms: _487  and  _489
REMARK  202  A    between atoms: _489  and  _490
REMARK  203  A    between atoms: _489  and  _492
REMARK  204  A    between atoms: _492  and  _493
REMARK  205  A    between atoms: _496  and  _498
REMARK  206  A    between atoms: _498  and  _499
REMARK  207  A    between atoms: _498  and  _501
REMARK  208  A    between atoms: _504  and  _506
REMARK  209  A    between atoms: _506  and  _507
REMARK  210  A    between atoms: _506  and  _509
REMARK  211  A    between atoms: _509  and  _510
REMARK  212  A    between atoms: _510  and  _511
REMARK  213  A    between atoms: _511  and  _512
REMARK  214  A    between atoms: _512  and  _513
REMARK  215  A    between atoms: _517  and  _519
REMARK  216  A    between atoms: _519  and  _520
REMARK  217  A    between atoms: _522  and  _524
REMARK  218  A    between atoms: _524  and  _525
REMARK  219  A    between atoms: _524  and  _527
REMARK  220  A    between atoms: _527  and  _528
REMARK  221  A    between atoms: _533  and  _534
REMARK  222  A    between atoms: _536  and  _538
REMARK  223  A    between atoms: _538  and  _539
REMARK  224  A    between atoms: _541  and  _543
REMARK  225  A    between atoms: _543  and  _544
REMARK  226  A    between atoms: _543  and  _546
REMARK  227  A    between atoms: _546  and  _547
REMARK                            x       y       z     vdW  Elec       q    Type
REMARK                         _______ _______ _______ _____ _____    ______ ____
ROOT
ATOM      1  O   HOH     1      -0.366  21.026  17.088  0.00  0.00    +0.000 OA
ENDROOT
TORSDOF 0
REMARK  Name = ../refined-set-2016/3fv2/3fv2_pocket.pdb
REMARK  227 active torsions:
REMARK  status: ('A' for Active; 'I' for Inactive)
REMARK    1  A    between atoms: _1  and  _3
REMARK    2  A    between atoms: _3  and  _4
REMARK    3  A    between atoms: _3  and  _6
REMARK    4  A    between atoms: _6  and  _7
REMARK    5  A    between atoms: _10  and  _12
REMARK    6  A    between atoms: _12  and  _13
REMARK    7  A    between atoms: _12  and  _15
REMARK    8  A    between atoms: _15  and  _16
REMARK    9  A    between atoms: _19  and  _21
REMARK   10  A    between atoms: _21  and  _22
REMARK   11  A    between atoms: _21  and  _24
REMARK   12  A    between atoms: _24  and  _25
REMARK   13  A    between atoms: _25  and  _26
REMARK   14  A    between atoms: _29  and  _31
REMARK   15  A    between atoms: _31  and  _32
REMARK   16  A    between atoms: _31  and  _34
REMARK   17  A    between atoms: _34  and  _35
REMARK   18  A    between atoms: _35  and  _36
REMARK   19  A    between atoms: _40  and  _41
REMARK   20  A    between atoms: _46  and  _48
REMARK   21  A    between atoms: _48  and  _49
REMARK   22  A    between atoms: _48  and  _51
REMARK   23  A    between atoms: _51  and  _52
REMARK   24  A    between atoms: _57  and  _58
REMARK   25  A    between atoms: _60  and  _62
REMARK   26  A    between atoms: _62  and  _63
REMARK   27  A    between atoms: _62  and  _65
REMARK   28  A    between atoms: _65  and  _66
REMARK   29  A    between atoms: _66  and  _67
REMARK   30  A    between atoms: _67  and  _68
REMARK   31  A    between atoms: _68  and  _69
REMARK   32  A    between atoms: _73  and  _75
REMARK   33  A    between atoms: _75  and  _76
REMARK   34  A    between atoms: _75  and  _78
REMARK   35  A    between atoms: _78  and  _79
REMARK   36  A    between atoms: _84  and  _85
REMARK   37  A    between atoms: _87  and  _89
REMARK   38  A    between atoms: _89  and  _90
REMARK   39  A    between atoms: _92  and  _94
REMARK   40  A    between atoms: _94  and  _95
REMARK   41  A    between atoms: _98  and  _100
REMARK   42  A    between atoms: _100  and  _101
REMARK   43  A    between atoms: _100  and  _103
REMARK   44  A    between atoms: _103  and  _104
REMARK   45  A    between atoms: _114  and  _116
REMARK   46  A    between atoms: _116  and  _117
REMARK   47  A    between atoms: _119  and  _121
REMARK   48  A    between atoms: _121  and  _122
REMARK   49  A    between atoms: _121  and  _124
REMARK   50  A    between atoms: _124  and  _125
REMARK   51  A    between atoms: _125  and  _126
REMARK   52  A    between atoms: _128  and  _130
REMARK   53  A    between atoms: _130  and  _131
REMARK   54  A    between atoms: _130  and  _133
REMARK   55  A    between atoms: _136  and  _138
REMARK   56  A    between atoms: _138  and  _139
REMARK   57  A    between atoms: _143  and  _144
REMARK   58  A    between atoms: _149  and  _151
REMARK   59  A    between atoms: _151  and  _152
REMARK   60  A    between atoms: _151  and  _154
REMARK   61  A    between atoms: _154  and  _155
REMARK   62  A    between atoms: _158  and  _160
REMARK   63  A    between atoms: _160  and  _161
REMARK   64  A    between atoms: _160  and  _163
REMARK   65  A    between atoms: _163  and  _164
REMARK   66  A    between atoms: _167  and  _169
REMARK   67  A    between atoms: _169  and  _170
REMARK   68  A    between atoms: _169  and  _172
REMARK   69  A    between atoms: _172  and  _173
REMARK   70  A    between atoms: _176  and  _178
REMARK   71  A    between atoms: _178  and  _179
REMARK   72  A    between atoms: _178  and  _181
REMARK   73  A    between atoms: _181  and  _182
REMARK   74  A    between atoms: _185  and  _187
REMARK   75  A    between atoms: _187  and  _188
REMARK   76  A    between atoms: _187  and  _190
REMARK   77  A    between atoms: _190  and  _191
REMARK   78  A    between atoms: _191  and  _192
REMARK   79  A    between atoms: _192  and  _193
REMARK   80  A    between atoms: _202  and  _204
REMARK   81  A    between atoms: _204  and  _205
REMARK   82  A    between atoms: _204  and  _207
REMARK   83  A    between atoms: _207  and  _208
REMARK   84  A    between atoms: _214  and  _216
REMARK   85  A    between atoms: _216  and  _217
REMARK   86  A    between atoms: _216  and  _219
REMARK   87  A    between atoms: _219  and  _220
REMARK   88  A    between atoms: _223  and  _225
REMARK   89  A    between atoms: _225  and  _226
REMARK   90  A    between atoms: _228  and  _230
REMARK   91  A    between atoms: _230  and  _231
REMARK   92  A    between atoms: _230  and  _233
REMARK   93  A    between atoms: _233  and  _234
REMARK   94  A    between atoms: _237  and  _239
REMARK   95  A    between atoms: _239  and  _240
REMARK   96  A    between atoms: _239  and  _242
REMARK   97  A    between atoms: _242  and  _243
REMARK   98  A    between atoms: _245  and  _247
REMARK   99  A    between atoms: _247  and  _248
REMARK  100  A    between atoms: _247  and  _250
REMARK  101  A    between atoms: _250  and  _251
REMARK  102  A    between atoms: _254  and  _256
REMARK  103  A    between atoms: _256  and  _257
REMARK  104  A    between atoms: _260  and  _262
REMARK  105  A    between atoms: _262  and  _263
REMARK  106  A    between atoms: _262  and  _265
REMARK  107  A    between atoms: _268  and  _270
REMARK  108  A    between atoms: _270  and  _271
REMARK  109  A    between atoms: _270  and  _273
REMARK  110  A    between atoms: _273  and  _274
REMARK  111  A    between atoms: _274  and  _275
REMARK  112  A    between atoms: _275  and  _276
REMARK  113  A    between atoms: _285  and  _287
REMARK  114  A    between atoms: _287  and  _288
REMARK  115  A    between atoms: _287  and  _290
REMARK  116  A    between atoms: _290  and  _291
REMARK  117  A    between atoms: _294  and  _296
REMARK  118  A    between atoms: _296  and  _297
REMARK  119  A    between atoms: _299  and  _301
REMARK  120  A    between atoms: _301  and  _302
REMARK  121  A    between atoms: _301  and  _304
REMARK  122  A    between atoms: _304  and  _305
REMARK  123  A    between atoms: _307  and  _309
REMARK  124  A    between atoms: _309  and  _310
REMARK  125  A    between atoms: _309  and  _312
REMARK  126  A    between atoms: _312  and  _313
REMARK  127  A    between atoms: _316  and  _318
REMARK  128  A    between atoms: _318  and  _319
REMARK  129  A    between atoms: _318  and  _321
REMARK  130  A    between atoms: _321  and  _322
REMARK  131  A    between atoms: _322  and  _323
REMARK  132  A    between atoms: _325  and  _327
REMARK  133  A    between atoms: _327  and  _328
REMARK  134  A    between atoms: _327  and  _330
REMARK  135  A    between atoms: _330  and  _331
REMARK  136  A    between atoms: _334  and  _336
REMARK  137  A    between atoms: _336  and  _337
REMARK  138  A    between atoms: _336  and  _339
REMARK  139  A    between atoms: _339  and  _340
REMARK  140  A    between atoms: _346  and  _348
REMARK  141  A    between atoms: _348  and  _349
REMARK  142  A    between atoms: _348  and  _351
REMARK  143  A    between atoms: _351  and  _352
REMARK  144  A    between atoms: _358  and  _360
REMARK  145  A    between atoms: _360  and  _361
REMARK  146  A    between atoms: _360  and  _363
REMARK  147  A    between atoms: _366  and  _368
REMARK  148  A    between atoms: _368  and  _369
REMARK  149  A    between atoms: _368  and  _371
REMARK  150  A    between atoms: _371  and  _372
REMARK  151  A    between atoms: _372  and  _373
REMARK  152  A    between atoms: _373  and  _374
REMARK  153  A    between atoms: _383  and  _385
REMARK  154  A    between atoms: _385  and  _386
REMARK  155  A    between atoms: _385  and  _388
REMARK  156  A    between atoms: _388  and  _389
REMARK  157  A    between atoms: _394  and  _396
REMARK  158  A    between atoms: _396  and  _397
REMARK  159  A    between atoms: _396  and  _399
REMARK  160  A    between atoms: _399  and  _400
REMARK  161  A    between atoms: _402  and  _404
REMARK  162  A    between atoms: _404  and  _405
REMARK  163  A    between atoms: _404  and  _407
REMARK  164  A    between atoms: _407  and  _408
REMARK  165  A    between atoms: _411  and  _413
REMARK  166  A    between atoms: _413  and  _414
REMARK  167  A    between atoms: _416  and  _418
REMARK  168  A    between atoms: _418  and  _419
REMARK  169  A    between atoms: _418  and  _421
REMARK  170  A    between atoms: _421  and  _422
REMARK  171  A    between atoms: _425  and  _427
REMARK  172  A    between atoms: _427  and  _428
REMARK  173  A    between atoms: _427  and  _430
REMARK  174  A    between atoms: _430  and  _431
REMARK  175  A    between atoms: _434  and  _436
REMARK  176  A    between atoms: _436  and  _437
REMARK  177  A    between atoms: _436  and  _439
REMARK  178  A    between atoms: _439  and  _440
REMARK  179  A    between atoms: _443  and  _445
REMARK  180  A    between atoms: _445  and  _446
REMARK  181  A    between atoms: _445  and  _448
REMARK  182  A    between atoms: _448  and  _449
REMARK  183  A    between atoms: _449  and  _450
REMARK  184  A    between atoms: _452  and  _454
REMARK  185  A    between atoms: _454  and  _455
REMARK  186  A    between atoms: _454  and  _457
REMARK  187  A    between atoms: _457  and  _458
REMARK  188  A    between atoms: _458  and  _459
REMARK  189  A    between atoms: _462  and  _464
REMARK  190  A    between atoms: _464  and  _465
REMARK  191  A    between atoms: _464  and  _467
REMARK  192  A    between atoms: _467  and  _468
REMARK  193  A    between atoms: _470  and  _472
REMARK  194  A    between atoms: _472  and  _473
REMARK  195  A    between atoms: _472  and  _475
REMARK  196  A    between atoms: _475  and  _476
REMARK  197  A    between atoms: _479  and  _481
REMARK  198  A    between atoms: _481  and  _482
REMARK  199  A    between atoms: _481  and  _484
REMARK  200  A    between atoms: _484  and  _485
REMARK  201  A    between atoms: _487  and  _489
REMARK  202  A    between atoms: _489  and  _490
REMARK  203  A    between atoms: _489  and  _492
REMARK  204  A    between atoms: _492  and  _493
REMARK  205  A    between atoms: _496  and  _498
REMARK  206  A    between atoms: _498  and  _499
REMARK  207  A    between atoms: _498  and  _501
REMARK  208  A    between atoms: _504  and  _506
REMARK  209  A    between atoms: _506  and  _507
REMARK  210  A    between atoms: _506  and  _509
REMARK  211  A    between atoms: _509  and  _510
REMARK  212  A    between atoms: _510  and  _511
REMARK  213  A    between atoms: _511  and  _512
REMARK  214  A    between atoms: _512  and  _513
REMARK  215  A    between atoms: _517  and  _519
REMARK  216  A    between atoms: _519  and  _520
REMARK  217  A    between atoms: _522  and  _524
REMARK  218  A    between atoms: _524  and  _525
REMARK  219  A    between atoms: _524  and  _527
REMARK  220  A    between atoms: _527  and  _528
REMARK  221  A    between atoms: _533  and  _534
REMARK  222  A    between atoms: _536  and  _538
REMARK  223  A    between atoms: _538  and  _539
REMARK  224  A    between atoms: _541  and  _543
REMARK  225  A    between atoms: _543  and  _544
REMARK  226  A    between atoms: _543  and  _546
REMARK  227  A    between atoms: _546  and  _547
REMARK                            x       y       z     vdW  Elec       q    Type
REMARK                         _______ _______ _______ _____ _____    ______ ____
ROOT
ATOM      1  O   HOH     1      -5.756  11.660  27.404  0.00  0.00    +0.000 OA
ENDROOT
TORSDOF 0
REMARK  Name = ../refined-set-2016/3fv2/3fv2_pocket.pdb
REMARK  227 active torsions:
REMARK  status: ('A' for Active; 'I' for Inactive)
REMARK    1  A    between atoms: _1  and  _3
REMARK    2  A    between atoms: _3  and  _4
REMARK    3  A    between atoms: _3  and  _6
REMARK    4  A    between atoms: _6  and  _7
REMARK    5  A    between atoms: _10  and  _12
REMARK    6  A    between atoms: _12  and  _13
REMARK    7  A    between atoms: _12  and  _15
REMARK    8  A    between atoms: _15  and  _16
REMARK    9  A    between atoms: _19  and  _21
REMARK   10  A    between atoms: _21  and  _22
REMARK   11  A    between atoms: _21  and  _24
REMARK   12  A    between atoms: _24  and  _25
REMARK   13  A    between atoms: _25  and  _26
REMARK   14  A    between atoms: _29  and  _31
REMARK   15  A    between atoms: _31  and  _32
REMARK   16  A    between atoms: _31  and  _34
REMARK   17  A    between atoms: _34  and  _35
REMARK   18  A    between atoms: _35  and  _36
REMARK   19  A    between atoms: _40  and  _41
REMARK   20  A    between atoms: _46  and  _48
REMARK   21  A    between atoms: _48  and  _49
REMARK   22  A    between atoms: _48  and  _51
REMARK   23  A    between atoms: _51  and  _52
REMARK   24  A    between atoms: _57  and  _58
REMARK   25  A    between atoms: _60  and  _62
REMARK   26  A    between atoms: _62  and  _63
REMARK   27  A    between atoms: _62  and  _65
REMARK   28  A    between atoms: _65  and  _66
REMARK   29  A    between atoms: _66  and  _67
REMARK   30  A    between atoms: _67  and  _68
REMARK   31  A    between atoms: _68  and  _69
REMARK   32  A    between atoms: _73  and  _75
REMARK   33  A    between atoms: _75  and  _76
REMARK   34  A    between atoms: _75  and  _78
REMARK   35  A    between atoms: _78  and  _79
REMARK   36  A    between atoms: _84  and  _85
REMARK   37  A    between atoms: _87  and  _89
REMARK   38  A    between atoms: _89  and  _90
REMARK   39  A    between atoms: _92  and  _94
REMARK   40  A    between atoms: _94  and  _95
REMARK   41  A    between atoms: _98  and  _100
REMARK   42  A    between atoms: _100  and  _101
REMARK   43  A    between atoms: _100  and  _103
REMARK   44  A    between atoms: _103  and  _104
REMARK   45  A    between atoms: _114  and  _116
REMARK   46  A    between atoms: _116  and  _117
REMARK   47  A    between atoms: _119  and  _121
REMARK   48  A    between atoms: _121  and  _122
REMARK   49  A    between atoms: _121  and  _124
REMARK   50  A    between atoms: _124  and  _125
REMARK   51  A    between atoms: _125  and  _126
REMARK   52  A    between atoms: _128  and  _130
REMARK   53  A    between atoms: _130  and  _131
REMARK   54  A    between atoms: _130  and  _133
REMARK   55  A    between atoms: _136  and  _138
REMARK   56  A    between atoms: _138  and  _139
REMARK   57  A    between atoms: _143  and  _144
REMARK   58  A    between atoms: _149  and  _151
REMARK   59  A    between atoms: _151  and  _152
REMARK   60  A    between atoms: _151  and  _154
REMARK   61  A    between atoms: _154  and  _155
REMARK   62  A    between atoms: _158  and  _160
REMARK   63  A    between atoms: _160  and  _161
REMARK   64  A    between atoms: _160  and  _163
REMARK   65  A    between atoms: _163  and  _164
REMARK   66  A    between atoms: _167  and  _169
REMARK   67  A    between atoms: _169  and  _170
REMARK   68  A    between atoms: _169  and  _172
REMARK   69  A    between atoms: _172  and  _173
REMARK   70  A    between atoms: _176  and  _178
REMARK   71  A    between atoms: _178  and  _179
REMARK   72  A    between atoms: _178  and  _181
REMARK   73  A    between atoms: _181  and  _182
REMARK   74  A    between atoms: _185  and  _187
REMARK   75  A    between atoms: _187  and  _188
REMARK   76  A    between atoms: _187  and  _190
REMARK   77  A    between atoms: _190  and  _191
REMARK   78  A    between atoms: _191  and  _192
REMARK   79  A    between atoms: _192  and  _193
REMARK   80  A    between atoms: _202  and  _204
REMARK   81  A    between atoms: _204  and  _205
REMARK   82  A    between atoms: _204  and  _207
REMARK   83  A    between atoms: _207  and  _208
REMARK   84  A    between atoms: _214  and  _216
REMARK   85  A    between atoms: _216  and  _217
REMARK   86  A    between atoms: _216  and  _219
REMARK   87  A    between atoms: _219  and  _220
REMARK   88  A    between atoms: _223  and  _225
REMARK   89  A    between atoms: _225  and  _226
REMARK   90  A    between atoms: _228  and  _230
REMARK   91  A    between atoms: _230  and  _231
REMARK   92  A    between atoms: _230  and  _233
REMARK   93  A    between atoms: _233  and  _234
REMARK   94  A    between atoms: _237  and  _239
REMARK   95  A    between atoms: _239  and  _240
REMARK   96  A    between atoms: _239  and  _242
REMARK   97  A    between atoms: _242  and  _243
REMARK   98  A    between atoms: _245  and  _247
REMARK   99  A    between atoms: _247  and  _248
REMARK  100  A    between atoms: _247  and  _250
REMARK  101  A    between atoms: _250  and  _251
REMARK  102  A    between atoms: _254  and  _256
REMARK  103  A    between atoms: _256  and  _257
REMARK  104  A    between atoms: _260  and  _262
REMARK  105  A    between atoms: _262  and  _263
REMARK  106  A    between atoms: _262  and  _265
REMARK  107  A    between atoms: _268  and  _270
REMARK  108  A    between atoms: _270  and  _271
REMARK  109  A    between atoms: _270  and  _273
REMARK  110  A    between atoms: _273  and  _274
REMARK  111  A    between atoms: _274  and  _275
REMARK  112  A    between atoms: _275  and  _276
REMARK  113  A    between atoms: _285  and  _287
REMARK  114  A    between atoms: _287  and  _288
REMARK  115  A    between atoms: _287  and  _290
REMARK  116  A    between atoms: _290  and  _291
REMARK  117  A    between atoms: _294  and  _296
REMARK  118  A    between atoms: _296  and  _297
REMARK  119  A    between atoms: _299  and  _301
REMARK  120  A    between atoms: _301  and  _302
REMARK  121  A    between atoms: _301  and  _304
REMARK  122  A    between atoms: _304  and  _305
REMARK  123  A    between atoms: _307  and  _309
REMARK  124  A    between atoms: _309  and  _310
REMARK  125  A    between atoms: _309  and  _312
REMARK  126  A    between atoms: _312  and  _313
REMARK  127  A    between atoms: _316  and  _318
REMARK  128  A    between atoms: _318  and  _319
REMARK  129  A    between atoms: _318  and  _321
REMARK  130  A    between atoms: _321  and  _322
REMARK  131  A    between atoms: _322  and  _323
REMARK  132  A    between atoms: _325  and  _327
REMARK  133  A    between atoms: _327  and  _328
REMARK  134  A    between atoms: _327  and  _330
REMARK  135  A    between atoms: _330  and  _331
REMARK  136  A    between atoms: _334  and  _336
REMARK  137  A    between atoms: _336  and  _337
REMARK  138  A    between atoms: _336  and  _339
REMARK  139  A    between atoms: _339  and  _340
REMARK  140  A    between atoms: _346  and  _348
REMARK  141  A    between atoms: _348  and  _349
REMARK  142  A    between atoms: _348  and  _351
REMARK  143  A    between atoms: _351  and  _352
REMARK  144  A    between atoms: _358  and  _360
REMARK  145  A    between atoms: _360  and  _361
REMARK  146  A    between atoms: _360  and  _363
REMARK  147  A    between atoms: _366  and  _368
REMARK  148  A    between atoms: _368  and  _369
REMARK  149  A    between atoms: _368  and  _371
REMARK  150  A    between atoms: _371  and  _372
REMARK  151  A    between atoms: _372  and  _373
REMARK  152  A    between atoms: _373  and  _374
REMARK  153  A    between atoms: _383  and  _385
REMARK  154  A    between atoms: _385  and  _386
REMARK  155  A    between atoms: _385  and  _388
REMARK  156  A    between atoms: _388  and  _389
REMARK  157  A    between atoms: _394  and  _396
REMARK  158  A    between atoms: _396  and  _397
REMARK  159  A    between atoms: _396  and  _399
REMARK  160  A    between atoms: _399  and  _400
REMARK  161  A    between atoms: _402  and  _404
REMARK  162  A    between atoms: _404  and  _405
REMARK  163  A    between atoms: _404  and  _407
REMARK  164  A    between atoms: _407  and  _408
REMARK  165  A    between atoms: _411  and  _413
REMARK  166  A    between atoms: _413  and  _414
REMARK  167  A    between atoms: _416  and  _418
REMARK  168  A    between atoms: _418  and  _419
REMARK  169  A    between atoms: _418  and  _421
REMARK  170  A    between atoms: _421  and  _422
REMARK  171  A    between atoms: _425  and  _427
REMARK  172  A    between atoms: _427  and  _428
REMARK  173  A    between atoms: _427  and  _430
REMARK  174  A    between atoms: _430  and  _431
REMARK  175  A    between atoms: _434  and  _436
REMARK  176  A    between atoms: _436  and  _437
REMARK  177  A    between atoms: _436  and  _439
REMARK  178  A    between atoms: _439  and  _440
REMARK  179  A    between atoms: _443  and  _445
REMARK  180  A    between atoms: _445  and  _446
REMARK  181  A    between atoms: _445  and  _448
REMARK  182  A    between atoms: _448  and  _449
REMARK  183  A    between atoms: _449  and  _450
REMARK  184  A    between atoms: _452  and  _454
REMARK  185  A    between atoms: _454  and  _455
REMARK  186  A    between atoms: _454  and  _457
REMARK  187  A    between atoms: _457  and  _458
REMARK  188  A    between atoms: _458  and  _459
REMARK  189  A    between atoms: _462  and  _464
REMARK  190  A    between atoms: _464  and  _465
REMARK  191  A    between atoms: _464  and  _467
REMARK  192  A    between atoms: _467  and  _468
REMARK  193  A    between atoms: _470  and  _472
REMARK  194  A    between atoms: _472  and  _473
REMARK  195  A    between atoms: _472  and  _475
REMARK  196  A    between atoms: _475  and  _476
REMARK  197  A    between atoms: _479  and  _481
REMARK  198  A    between atoms: _481  and  _482
REMARK  199  A    between atoms: _481  and  _484
REMARK  200  A    between atoms: _484  and  _485
REMARK  201  A    between atoms: _487  and  _489
REMARK  202  A    between atoms: _489  and  _490
REMARK  203  A    between atoms: _489  and  _492
REMARK  204  A    between atoms: _492  and  _493
REMARK  205  A    between atoms: _496  and  _498
REMARK  206  A    between atoms: _498  and  _499
REMARK  207  A    between atoms: _498  and  _501
REMARK  208  A    between atoms: _504  and  _506
REMARK  209  A    between atoms: _506  and  _507
REMARK  210  A    between atoms: _506  and  _509
REMARK  211  A    between atoms: _509  and  _510
REMARK  212  A    between atoms: _510  and  _511
REMARK  213  A    between atoms: _511  and  _512
REMARK  214  A    between atoms: _512  and  _513
REMARK  215  A    between atoms: _517  and  _519
REMARK  216  A    between atoms: _519  and  _520
REMARK  217  A    between atoms: _522  and  _524
REMARK  218  A    between atoms: _524  and  _525
REMARK  219  A    between atoms: _524  and  _527
REMARK  220  A    between atoms: _527  and  _528
REMARK  221  A    between atoms: _533  and  _534
REMARK  222  A    between atoms: _536  and  _538
REMARK  223  A    between atoms: _538  and  _539
REMARK  224  A    between atoms: _541  and  _543
REMARK  225  A    between atoms: _543  and  _544
REMARK  226  A    between atoms: _543  and  _546
REMARK  227  A    between atoms: _546  and  _547
REMARK                            x       y       z     vdW  Elec       q    Type
REMARK                         _______ _______ _______ _____ _____    ______ ____
ROOT
ATOM      1  O   HOH     1     -12.231  10.326  26.794  0.00  0.00    +0.000 OA
ENDROOT
TORSDOF 0
REMARK  Name = ../refined-set-2016/3fv2/3fv2_pocket.pdb
REMARK  227 active torsions:
REMARK  status: ('A' for Active; 'I' for Inactive)
REMARK    1  A    between atoms: _1  and  _3
REMARK    2  A    between atoms: _3  and  _4
REMARK    3  A    between atoms: _3  and  _6
REMARK    4  A    between atoms: _6  and  _7
REMARK    5  A    between atoms: _10  and  _12
REMARK    6  A    between atoms: _12  and  _13
REMARK    7  A    between atoms: _12  and  _15
REMARK    8  A    between atoms: _15  and  _16
REMARK    9  A    between atoms: _19  and  _21
REMARK   10  A    between atoms: _21  and  _22
REMARK   11  A    between atoms: _21  and  _24
REMARK   12  A    between atoms: _24  and  _25
REMARK   13  A    between atoms: _25  and  _26
REMARK   14  A    between atoms: _29  and  _31
REMARK   15  A    between atoms: _31  and  _32
REMARK   16  A    between atoms: _31  and  _34
REMARK   17  A    between atoms: _34  and  _35
REMARK   18  A    between atoms: _35  and  _36
REMARK   19  A    between atoms: _40  and  _41
REMARK   20  A    between atoms: _46  and  _48
REMARK   21  A    between atoms: _48  and  _49
REMARK   22  A    between atoms: _48  and  _51
REMARK   23  A    between atoms: _51  and  _52
REMARK   24  A    between atoms: _57  and  _58
REMARK   25  A    between atoms: _60  and  _62
REMARK   26  A    between atoms: _62  and  _63
REMARK   27  A    between atoms: _62  and  _65
REMARK   28  A    between atoms: _65  and  _66
REMARK   29  A    between atoms: _66  and  _67
REMARK   30  A    between atoms: _67  and  _68
REMARK   31  A    between atoms: _68  and  _69
REMARK   32  A    between atoms: _73  and  _75
REMARK   33  A    between atoms: _75  and  _76
REMARK   34  A    between atoms: _75  and  _78
REMARK   35  A    between atoms: _78  and  _79
REMARK   36  A    between atoms: _84  and  _85
REMARK   37  A    between atoms: _87  and  _89
REMARK   38  A    between atoms: _89  and  _90
REMARK   39  A    between atoms: _92  and  _94
REMARK   40  A    between atoms: _94  and  _95
REMARK   41  A    between atoms: _98  and  _100
REMARK   42  A    between atoms: _100  and  _101
REMARK   43  A    between atoms: _100  and  _103
REMARK   44  A    between atoms: _103  and  _104
REMARK   45  A    between atoms: _114  and  _116
REMARK   46  A    between atoms: _116  and  _117
REMARK   47  A    between atoms: _119  and  _121
REMARK   48  A    between atoms: _121  and  _122
REMARK   49  A    between atoms: _121  and  _124
REMARK   50  A    between atoms: _124  and  _125
REMARK   51  A    between atoms: _125  and  _126
REMARK   52  A    between atoms: _128  and  _130
REMARK   53  A    between atoms: _130  and  _131
REMARK   54  A    between atoms: _130  and  _133
REMARK   55  A    between atoms: _136  and  _138
REMARK   56  A    between atoms: _138  and  _139
REMARK   57  A    between atoms: _143  and  _144
REMARK   58  A    between atoms: _149  and  _151
REMARK   59  A    between atoms: _151  and  _152
REMARK   60  A    between atoms: _151  and  _154
REMARK   61  A    between atoms: _154  and  _155
REMARK   62  A    between atoms: _158  and  _160
REMARK   63  A    between atoms: _160  and  _161
REMARK   64  A    between atoms: _160  and  _163
REMARK   65  A    between atoms: _163  and  _164
REMARK   66  A    between atoms: _167  and  _169
REMARK   67  A    between atoms: _169  and  _170
REMARK   68  A    between atoms: _169  and  _172
REMARK   69  A    between atoms: _172  and  _173
REMARK   70  A    between atoms: _176  and  _178
REMARK   71  A    between atoms: _178  and  _179
REMARK   72  A    between atoms: _178  and  _181
REMARK   73  A    between atoms: _181  and  _182
REMARK   74  A    between atoms: _185  and  _187
REMARK   75  A    between atoms: _187  and  _188
REMARK   76  A    between atoms: _187  and  _190
REMARK   77  A    between atoms: _190  and  _191
REMARK   78  A    between atoms: _191  and  _192
REMARK   79  A    between atoms: _192  and  _193
REMARK   80  A    between atoms: _202  and  _204
REMARK   81  A    between atoms: _204  and  _205
REMARK   82  A    between atoms: _204  and  _207
REMARK   83  A    between atoms: _207  and  _208
REMARK   84  A    between atoms: _214  and  _216
REMARK   85  A    between atoms: _216  and  _217
REMARK   86  A    between atoms: _216  and  _219
REMARK   87  A    between atoms: _219  and  _220
REMARK   88  A    between atoms: _223  and  _225
REMARK   89  A    between atoms: _225  and  _226
REMARK   90  A    between atoms: _228  and  _230
REMARK   91  A    between atoms: _230  and  _231
REMARK   92  A    between atoms: _230  and  _233
REMARK   93  A    between atoms: _233  and  _234
REMARK   94  A    between atoms: _237  and  _239
REMARK   95  A    between atoms: _239  and  _240
REMARK   96  A    between atoms: _239  and  _242
REMARK   97  A    between atoms: _242  and  _243
REMARK   98  A    between atoms: _245  and  _247
REMARK   99  A    between atoms: _247  and  _248
REMARK  100  A    between atoms: _247  and  _250
REMARK  101  A    between atoms: _250  and  _251
REMARK  102  A    between atoms: _254  and  _256
REMARK  103  A    between atoms: _256  and  _257
REMARK  104  A    between atoms: _260  and  _262
REMARK  105  A    between atoms: _262  and  _263
REMARK  106  A    between atoms: _262  and  _265
REMARK  107  A    between atoms: _268  and  _270
REMARK  108  A    between atoms: _270  and  _271
REMARK  109  A    between atoms: _270  and  _273
REMARK  110  A    between atoms: _273  and  _274
REMARK  111  A    between atoms: _274  and  _275
REMARK  112  A    between atoms: _275  and  _276
REMARK  113  A    between atoms: _285  and  _287
REMARK  114  A    between atoms: _287  and  _288
REMARK  115  A    between atoms: _287  and  _290
REMARK  116  A    between atoms: _290  and  _291
REMARK  117  A    between atoms: _294  and  _296
REMARK  118  A    between atoms: _296  and  _297
REMARK  119  A    between atoms: _299  and  _301
REMARK  120  A    between atoms: _301  and  _302
REMARK  121  A    between atoms: _301  and  _304
REMARK  122  A    between atoms: _304  and  _305
REMARK  123  A    between atoms: _307  and  _309
REMARK  124  A    between atoms: _309  and  _310
REMARK  125  A    between atoms: _309  and  _312
REMARK  126  A    between atoms: _312  and  _313
REMARK  127  A    between atoms: _316  and  _318
REMARK  128  A    between atoms: _318  and  _319
REMARK  129  A    between atoms: _318  and  _321
REMARK  130  A    between atoms: _321  and  _322
REMARK  131  A    between atoms: _322  and  _323
REMARK  132  A    between atoms: _325  and  _327
REMARK  133  A    between atoms: _327  and  _328
REMARK  134  A    between atoms: _327  and  _330
REMARK  135  A    between atoms: _330  and  _331
REMARK  136  A    between atoms: _334  and  _336
REMARK  137  A    between atoms: _336  and  _337
REMARK  138  A    between atoms: _336  and  _339
REMARK  139  A    between atoms: _339  and  _340
REMARK  140  A    between atoms: _346  and  _348
REMARK  141  A    between atoms: _348  and  _349
REMARK  142  A    between atoms: _348  and  _351
REMARK  143  A    between atoms: _351  and  _352
REMARK  144  A    between atoms: _358  and  _360
REMARK  145  A    between atoms: _360  and  _361
REMARK  146  A    between atoms: _360  and  _363
REMARK  147  A    between atoms: _366  and  _368
REMARK  148  A    between atoms: _368  and  _369
REMARK  149  A    between atoms: _368  and  _371
REMARK  150  A    between atoms: _371  and  _372
REMARK  151  A    between atoms: _372  and  _373
REMARK  152  A    between atoms: _373  and  _374
REMARK  153  A    between atoms: _383  and  _385
REMARK  154  A    between atoms: _385  and  _386
REMARK  155  A    between atoms: _385  and  _388
REMARK  156  A    between atoms: _388  and  _389
REMARK  157  A    between atoms: _394  and  _396
REMARK  158  A    between atoms: _396  and  _397
REMARK  159  A    between atoms: _396  and  _399
REMARK  160  A    between atoms: _399  and  _400
REMARK  161  A    between atoms: _402  and  _404
REMARK  162  A    between atoms: _404  and  _405
REMARK  163  A    between atoms: _404  and  _407
REMARK  164  A    between atoms: _407  and  _408
REMARK  165  A    between atoms: _411  and  _413
REMARK  166  A    between atoms: _413  and  _414
REMARK  167  A    between atoms: _416  and  _418
REMARK  168  A    between atoms: _418  and  _419
REMARK  169  A    between atoms: _418  and  _421
REMARK  170  A    between atoms: _421  and  _422
REMARK  171  A    between atoms: _425  and  _427
REMARK  172  A    between atoms: _427  and  _428
REMARK  173  A    between atoms: _427  and  _430
REMARK  174  A    between atoms: _430  and  _431
REMARK  175  A    between atoms: _434  and  _436
REMARK  176  A    between atoms: _436  and  _437
REMARK  177  A    between atoms: _436  and  _439
REMARK  178  A    between atoms: _439  and  _440
REMARK  179  A    between atoms: _443  and  _445
REMARK  180  A    between atoms: _445  and  _446
REMARK  181  A    between atoms: _445  and  _448
REMARK  182  A    between atoms: _448  and  _449
REMARK  183  A    between atoms: _449  and  _450
REMARK  184  A    between atoms: _452  and  _454
REMARK  185  A    between atoms: _454  and  _455
REMARK  186  A    between atoms: _454  and  _457
REMARK  187  A    between atoms: _457  and  _458
REMARK  188  A    between atoms: _458  and  _459
REMARK  189  A    between atoms: _462  and  _464
REMARK  190  A    between atoms: _464  and  _465
REMARK  191  A    between atoms: _464  and  _467
REMARK  192  A    between atoms: _467  and  _468
REMARK  193  A    between atoms: _470  and  _472
REMARK  194  A    between atoms: _472  and  _473
REMARK  195  A    between atoms: _472  and  _475
REMARK  196  A    between atoms: _475  and  _476
REMARK  197  A    between atoms: _479  and  _481
REMARK  198  A    between atoms: _481  and  _482
REMARK  199  A    between atoms: _481  and  _484
REMARK  200  A    between atoms: _484  and  _485
REMARK  201  A    between atoms: _487  and  _489
REMARK  202  A    between atoms: _489  and  _490
REMARK  203  A    between atoms: _489  and  _492
REMARK  204  A    between atoms: _492  and  _493
REMARK  205  A    between atoms: _496  and  _498
REMARK  206  A    between atoms: _498  and  _499
REMARK  207  A    between atoms: _498  and  _501
REMARK  208  A    between atoms: _504  and  _506
REMARK  209  A    between atoms: _506  and  _507
REMARK  210  A    between atoms: _506  and  _509
REMARK  211  A    between atoms: _509  and  _510
REMARK  212  A    between atoms: _510  and  _511
REMARK  213  A    between atoms: _511  and  _512
REMARK  214  A    between atoms: _512  and  _513
REMARK  215  A    between atoms: _517  and  _519
REMARK  216  A    between atoms: _519  and  _520
REMARK  217  A    between atoms: _522  and  _524
REMARK  218  A    between atoms: _524  and  _525
REMARK  219  A    between atoms: _524  and  _527
REMARK  220  A    between atoms: _527  and  _528
REMARK  221  A    between atoms: _533  and  _534
REMARK  222  A    between atoms: _536  and  _538
REMARK  223  A    between atoms: _538  and  _539
REMARK  224  A    between atoms: _541  and  _543
REMARK  225  A    between atoms: _543  and  _544
REMARK  226  A    between atoms: _543  and  _546
REMARK  227  A    between atoms: _546  and  _547
REMARK                            x       y       z     vdW  Elec       q    Type
REMARK                         _______ _______ _______ _____ _____    ______ ____
ROOT
ATOM      1  O   HOH     1      -8.912  11.319  28.096  0.00  0.00    +0.000 OA
ENDROOT
TORSDOF 0
REMARK  Name = ../refined-set-2016/3fv2/3fv2_pocket.pdb
REMARK  227 active torsions:
REMARK  status: ('A' for Active; 'I' for Inactive)
REMARK    1  A    between atoms: _1  and  _3
REMARK    2  A    between atoms: _3  and  _4
REMARK    3  A    between atoms: _3  and  _6
REMARK    4  A    between atoms: _6  and  _7
REMARK    5  A    between atoms: _10  and  _12
REMARK    6  A    between atoms: _12  and  _13
REMARK    7  A    between atoms: _12  and  _15
REMARK    8  A    between atoms: _15  and  _16
REMARK    9  A    between atoms: _19  and  _21
REMARK   10  A    between atoms: _21  and  _22
REMARK   11  A    between atoms: _21  and  _24
REMARK   12  A    between atoms: _24  and  _25
REMARK   13  A    between atoms: _25  and  _26
REMARK   14  A    between atoms: _29  and  _31
REMARK   15  A    between atoms: _31  and  _32
REMARK   16  A    between atoms: _31  and  _34
REMARK   17  A    between atoms: _34  and  _35
REMARK   18  A    between atoms: _35  and  _36
REMARK   19  A    between atoms: _40  and  _41
REMARK   20  A    between atoms: _46  and  _48
REMARK   21  A    between atoms: _48  and  _49
REMARK   22  A    between atoms: _48  and  _51
REMARK   23  A    between atoms: _51  and  _52
REMARK   24  A    between atoms: _57  and  _58
REMARK   25  A    between atoms: _60  and  _62
REMARK   26  A    between atoms: _62  and  _63
REMARK   27  A    between atoms: _62  and  _65
REMARK   28  A    between atoms: _65  and  _66
REMARK   29  A    between atoms: _66  and  _67
REMARK   30  A    between atoms: _67  and  _68
REMARK   31  A    between atoms: _68  and  _69
REMARK   32  A    between atoms: _73  and  _75
REMARK   33  A    between atoms: _75  and  _76
REMARK   34  A    between atoms: _75  and  _78
REMARK   35  A    between atoms: _78  and  _79
REMARK   36  A    between atoms: _84  and  _85
REMARK   37  A    between atoms: _87  and  _89
REMARK   38  A    between atoms: _89  and  _90
REMARK   39  A    between atoms: _92  and  _94
REMARK   40  A    between atoms: _94  and  _95
REMARK   41  A    between atoms: _98  and  _100
REMARK   42  A    between atoms: _100  and  _101
REMARK   43  A    between atoms: _100  and  _103
REMARK   44  A    between atoms: _103  and  _104
REMARK   45  A    between atoms: _114  and  _116
REMARK   46  A    between atoms: _116  and  _117
REMARK   47  A    between atoms: _119  and  _121
REMARK   48  A    between atoms: _121  and  _122
REMARK   49  A    between atoms: _121  and  _124
REMARK   50  A    between atoms: _124  and  _125
REMARK   51  A    between atoms: _125  and  _126
REMARK   52  A    between atoms: _128  and  _130
REMARK   53  A    between atoms: _130  and  _131
REMARK   54  A    between atoms: _130  and  _133
REMARK   55  A    between atoms: _136  and  _138
REMARK   56  A    between atoms: _138  and  _139
REMARK   57  A    between atoms: _143  and  _144
REMARK   58  A    between atoms: _149  and  _151
REMARK   59  A    between atoms: _151  and  _152
REMARK   60  A    between atoms: _151  and  _154
REMARK   61  A    between atoms: _154  and  _155
REMARK   62  A    between atoms: _158  and  _160
REMARK   63  A    between atoms: _160  and  _161
REMARK   64  A    between atoms: _160  and  _163
REMARK   65  A    between atoms: _163  and  _164
REMARK   66  A    between atoms: _167  and  _169
REMARK   67  A    between atoms: _169  and  _170
REMARK   68  A    between atoms: _169  and  _172
REMARK   69  A    between atoms: _172  and  _173
REMARK   70  A    between atoms: _176  and  _178
REMARK   71  A    between atoms: _178  and  _179
REMARK   72  A    between atoms: _178  and  _181
REMARK   73  A    between atoms: _181  and  _182
REMARK   74  A    between atoms: _185  and  _187
REMARK   75  A    between atoms: _187  and  _188
REMARK   76  A    between atoms: _187  and  _190
REMARK   77  A    between atoms: _190  and  _191
REMARK   78  A    between atoms: _191  and  _192
REMARK   79  A    between atoms: _192  and  _193
REMARK   80  A    between atoms: _202  and  _204
REMARK   81  A    between atoms: _204  and  _205
REMARK   82  A    between atoms: _204  and  _207
REMARK   83  A    between atoms: _207  and  _208
REMARK   84  A    between atoms: _214  and  _216
REMARK   85  A    between atoms: _216  and  _217
REMARK   86  A    between atoms: _216  and  _219
REMARK   87  A    between atoms: _219  and  _220
REMARK   88  A    between atoms: _223  and  _225
REMARK   89  A    between atoms: _225  and  _226
REMARK   90  A    between atoms: _228  and  _230
REMARK   91  A    between atoms: _230  and  _231
REMARK   92  A    between atoms: _230  and  _233
REMARK   93  A    between atoms: _233  and  _234
REMARK   94  A    between atoms: _237  and  _239
REMARK   95  A    between atoms: _239  and  _240
REMARK   96  A    between atoms: _239  and  _242
REMARK   97  A    between atoms: _242  and  _243
REMARK   98  A    between atoms: _245  and  _247
REMARK   99  A    between atoms: _247  and  _248
REMARK  100  A    between atoms: _247  and  _250
REMARK  101  A    between atoms: _250  and  _251
REMARK  102  A    between atoms: _254  and  _256
REMARK  103  A    between atoms: _256  and  _257
REMARK  104  A    between atoms: _260  and  _262
REMARK  105  A    between atoms: _262  and  _263
REMARK  106  A    between atoms: _262  and  _265
REMARK  107  A    between atoms: _268  and  _270
REMARK  108  A    between atoms: _270  and  _271
REMARK  109  A    between atoms: _270  and  _273
REMARK  110  A    between atoms: _273  and  _274
REMARK  111  A    between atoms: _274  and  _275
REMARK  112  A    between atoms: _275  and  _276
REMARK  113  A    between atoms: _285  and  _287
REMARK  114  A    between atoms: _287  and  _288
REMARK  115  A    between atoms: _287  and  _290
REMARK  116  A    between atoms: _290  and  _291
REMARK  117  A    between atoms: _294  and  _296
REMARK  118  A    between atoms: _296  and  _297
REMARK  119  A    between atoms: _299  and  _301
REMARK  120  A    between atoms: _301  and  _302
REMARK  121  A    between atoms: _301  and  _304
REMARK  122  A    between atoms: _304  and  _305
REMARK  123  A    between atoms: _307  and  _309
REMARK  124  A    between atoms: _309  and  _310
REMARK  125  A    between atoms: _309  and  _312
REMARK  126  A    between atoms: _312  and  _313
REMARK  127  A    between atoms: _316  and  _318
REMARK  128  A    between atoms: _318  and  _319
REMARK  129  A    between atoms: _318  and  _321
REMARK  130  A    between atoms: _321  and  _322
REMARK  131  A    between atoms: _322  and  _323
REMARK  132  A    between atoms: _325  and  _327
REMARK  133  A    between atoms: _327  and  _328
REMARK  134  A    between atoms: _327  and  _330
REMARK  135  A    between atoms: _330  and  _331
REMARK  136  A    between atoms: _334  and  _336
REMARK  137  A    between atoms: _336  and  _337
REMARK  138  A    between atoms: _336  and  _339
REMARK  139  A    between atoms: _339  and  _340
REMARK  140  A    between atoms: _346  and  _348
REMARK  141  A    between atoms: _348  and  _349
REMARK  142  A    between atoms: _348  and  _351
REMARK  143  A    between atoms: _351  and  _352
REMARK  144  A    between atoms: _358  and  _360
REMARK  145  A    between atoms: _360  and  _361
REMARK  146  A    between atoms: _360  and  _363
REMARK  147  A    between atoms: _366  and  _368
REMARK  148  A    between atoms: _368  and  _369
REMARK  149  A    between atoms: _368  and  _371
REMARK  150  A    between atoms: _371  and  _372
REMARK  151  A    between atoms: _372  and  _373
REMARK  152  A    between atoms: _373  and  _374
REMARK  153  A    between atoms: _383  and  _385
REMARK  154  A    between atoms: _385  and  _386
REMARK  155  A    between atoms: _385  and  _388
REMARK  156  A    between atoms: _388  and  _389
REMARK  157  A    between atoms: _394  and  _396
REMARK  158  A    between atoms: _396  and  _397
REMARK  159  A    between atoms: _396  and  _399
REMARK  160  A    between atoms: _399  and  _400
REMARK  161  A    between atoms: _402  and  _404
REMARK  162  A    between atoms: _404  and  _405
REMARK  163  A    between atoms: _404  and  _407
REMARK  164  A    between atoms: _407  and  _408
REMARK  165  A    between atoms: _411  and  _413
REMARK  166  A    between atoms: _413  and  _414
REMARK  167  A    between atoms: _416  and  _418
REMARK  168  A    between atoms: _418  and  _419
REMARK  169  A    between atoms: _418  and  _421
REMARK  170  A    between atoms: _421  and  _422
REMARK  171  A    between atoms: _425  and  _427
REMARK  172  A    between atoms: _427  and  _428
REMARK  173  A    between atoms: _427  and  _430
REMARK  174  A    between atoms: _430  and  _431
REMARK  175  A    between atoms: _434  and  _436
REMARK  176  A    between atoms: _436  and  _437
REMARK  177  A    between atoms: _436  and  _439
REMARK  178  A    between atoms: _439  and  _440
REMARK  179  A    between atoms: _443  and  _445
REMARK  180  A    between atoms: _445  and  _446
REMARK  181  A    between atoms: _445  and  _448
REMARK  182  A    between atoms: _448  and  _449
REMARK  183  A    between atoms: _449  and  _450
REMARK  184  A    between atoms: _452  and  _454
REMARK  185  A    between atoms: _454  and  _455
REMARK  186  A    between atoms: _454  and  _457
REMARK  187  A    between atoms: _457  and  _458
REMARK  188  A    between atoms: _458  and  _459
REMARK  189  A    between atoms: _462  and  _464
REMARK  190  A    between atoms: _464  and  _465
REMARK  191  A    between atoms: _464  and  _467
REMARK  192  A    between atoms: _467  and  _468
REMARK  193  A    between atoms: _470  and  _472
REMARK  194  A    between atoms: _472  and  _473
REMARK  195  A    between atoms: _472  and  _475
REMARK  196  A    between atoms: _475  and  _476
REMARK  197  A    between atoms: _479  and  _481
REMARK  198  A    between atoms: _481  and  _482
REMARK  199  A    between atoms: _481  and  _484
REMARK  200  A    between atoms: _484  and  _485
REMARK  201  A    between atoms: _487  and  _489
REMARK  202  A    between atoms: _489  and  _490
REMARK  203  A    between atoms: _489  and  _492
REMARK  204  A    between atoms: _492  and  _493
REMARK  205  A    between atoms: _496  and  _498
REMARK  206  A    between atoms: _498  and  _499
REMARK  207  A    between atoms: _498  and  _501
REMARK  208  A    between atoms: _504  and  _506
REMARK  209  A    between atoms: _506  and  _507
REMARK  210  A    between atoms: _506  and  _509
REMARK  211  A    between atoms: _509  and  _510
REMARK  212  A    between atoms: _510  and  _511
REMARK  213  A    between atoms: _511  and  _512
REMARK  214  A    between atoms: _512  and  _513
REMARK  215  A    between atoms: _517  and  _519
REMARK  216  A    between atoms: _519  and  _520
REMARK  217  A    between atoms: _522  and  _524
REMARK  218  A    between atoms: _524  and  _525
REMARK  219  A    between atoms: _524  and  _527
REMARK  220  A    between atoms: _527  and  _528
REMARK  221  A    between atoms: _533  and  _534
REMARK  222  A    between atoms: _536  and  _538
REMARK  223  A    between atoms: _538  and  _539
REMARK  224  A    between atoms: _541  and  _543
REMARK  225  A    between atoms: _543  and  _544
REMARK  226  A    between atoms: _543  and  _546
REMARK  227  A    between atoms: _546  and  _547
REMARK                            x       y       z     vdW  Elec       q    Type
REMARK                         _______ _______ _______ _____ _____    ______ ____
ROOT
ATOM      1  O   HOH     1     -10.316   8.561  26.730  0.00  0.00    +0.000 OA
ENDROOT
TORSDOF 0
REMARK  Name = ../refined-set-2016/3fv2/3fv2_pocket.pdb
REMARK  227 active torsions:
REMARK  status: ('A' for Active; 'I' for Inactive)
REMARK    1  A    between atoms: _1  and  _3
REMARK    2  A    between atoms: _3  and  _4
REMARK    3  A    between atoms: _3  and  _6
REMARK    4  A    between atoms: _6  and  _7
REMARK    5  A    between atoms: _10  and  _12
REMARK    6  A    between atoms: _12  and  _13
REMARK    7  A    between atoms: _12  and  _15
REMARK    8  A    between atoms: _15  and  _16
REMARK    9  A    between atoms: _19  and  _21
REMARK   10  A    between atoms: _21  and  _22
REMARK   11  A    between atoms: _21  and  _24
REMARK   12  A    between atoms: _24  and  _25
REMARK   13  A    between atoms: _25  and  _26
REMARK   14  A    between atoms: _29  and  _31
REMARK   15  A    between atoms: _31  and  _32
REMARK   16  A    between atoms: _31  and  _34
REMARK   17  A    between atoms: _34  and  _35
REMARK   18  A    between atoms: _35  and  _36
REMARK   19  A    between atoms: _40  and  _41
REMARK   20  A    between atoms: _46  and  _48
REMARK   21  A    between atoms: _48  and  _49
REMARK   22  A    between atoms: _48  and  _51
REMARK   23  A    between atoms: _51  and  _52
REMARK   24  A    between atoms: _57  and  _58
REMARK   25  A    between atoms: _60  and  _62
REMARK   26  A    between atoms: _62  and  _63
REMARK   27  A    between atoms: _62  and  _65
REMARK   28  A    between atoms: _65  and  _66
REMARK   29  A    between atoms: _66  and  _67
REMARK   30  A    between atoms: _67  and  _68
REMARK   31  A    between atoms: _68  and  _69
REMARK   32  A    between atoms: _73  and  _75
REMARK   33  A    between atoms: _75  and  _76
REMARK   34  A    between atoms: _75  and  _78
REMARK   35  A    between atoms: _78  and  _79
REMARK   36  A    between atoms: _84  and  _85
REMARK   37  A    between atoms: _87  and  _89
REMARK   38  A    between atoms: _89  and  _90
REMARK   39  A    between atoms: _92  and  _94
REMARK   40  A    between atoms: _94  and  _95
REMARK   41  A    between atoms: _98  and  _100
REMARK   42  A    between atoms: _100  and  _101
REMARK   43  A    between atoms: _100  and  _103
REMARK   44  A    between atoms: _103  and  _104
REMARK   45  A    between atoms: _114  and  _116
REMARK   46  A    between atoms: _116  and  _117
REMARK   47  A    between atoms: _119  and  _121
REMARK   48  A    between atoms: _121  and  _122
REMARK   49  A    between atoms: _121  and  _124
REMARK   50  A    between atoms: _124  and  _125
REMARK   51  A    between atoms: _125  and  _126
REMARK   52  A    between atoms: _128  and  _130
REMARK   53  A    between atoms: _130  and  _131
REMARK   54  A    between atoms: _130  and  _133
REMARK   55  A    between atoms: _136  and  _138
REMARK   56  A    between atoms: _138  and  _139
REMARK   57  A    between atoms: _143  and  _144
REMARK   58  A    between atoms: _149  and  _151
REMARK   59  A    between atoms: _151  and  _152
REMARK   60  A    between atoms: _151  and  _154
REMARK   61  A    between atoms: _154  and  _155
REMARK   62  A    between atoms: _158  and  _160
REMARK   63  A    between atoms: _160  and  _161
REMARK   64  A    between atoms: _160  and  _163
REMARK   65  A    between atoms: _163  and  _164
REMARK   66  A    between atoms: _167  and  _169
REMARK   67  A    between atoms: _169  and  _170
REMARK   68  A    between atoms: _169  and  _172
REMARK   69  A    between atoms: _172  and  _173
REMARK   70  A    between atoms: _176  and  _178
REMARK   71  A    between atoms: _178  and  _179
REMARK   72  A    between atoms: _178  and  _181
REMARK   73  A    between atoms: _181  and  _182
REMARK   74  A    between atoms: _185  and  _187
REMARK   75  A    between atoms: _187  and  _188
REMARK   76  A    between atoms: _187  and  _190
REMARK   77  A    between atoms: _190  and  _191
REMARK   78  A    between atoms: _191  and  _192
REMARK   79  A    between atoms: _192  and  _193
REMARK   80  A    between atoms: _202  and  _204
REMARK   81  A    between atoms: _204  and  _205
REMARK   82  A    between atoms: _204  and  _207
REMARK   83  A    between atoms: _207  and  _208
REMARK   84  A    between atoms: _214  and  _216
REMARK   85  A    between atoms: _216  and  _217
REMARK   86  A    between atoms: _216  and  _219
REMARK   87  A    between atoms: _219  and  _220
REMARK   88  A    between atoms: _223  and  _225
REMARK   89  A    between atoms: _225  and  _226
REMARK   90  A    between atoms: _228  and  _230
REMARK   91  A    between atoms: _230  and  _231
REMARK   92  A    between atoms: _230  and  _233
REMARK   93  A    between atoms: _233  and  _234
REMARK   94  A    between atoms: _237  and  _239
REMARK   95  A    between atoms: _239  and  _240
REMARK   96  A    between atoms: _239  and  _242
REMARK   97  A    between atoms: _242  and  _243
REMARK   98  A    between atoms: _245  and  _247
REMARK   99  A    between atoms: _247  and  _248
REMARK  100  A    between atoms: _247  and  _250
REMARK  101  A    between atoms: _250  and  _251
REMARK  102  A    between atoms: _254  and  _256
REMARK  103  A    between atoms: _256  and  _257
REMARK  104  A    between atoms: _260  and  _262
REMARK  105  A    between atoms: _262  and  _263
REMARK  106  A    between atoms: _262  and  _265
REMARK  107  A    between atoms: _268  and  _270
REMARK  108  A    between atoms: _270  and  _271
REMARK  109  A    between atoms: _270  and  _273
REMARK  110  A    between atoms: _273  and  _274
REMARK  111  A    between atoms: _274  and  _275
REMARK  112  A    between atoms: _275  and  _276
REMARK  113  A    between atoms: _285  and  _287
REMARK  114  A    between atoms: _287  and  _288
REMARK  115  A    between atoms: _287  and  _290
REMARK  116  A    between atoms: _290  and  _291
REMARK  117  A    between atoms: _294  and  _296
REMARK  118  A    between atoms: _296  and  _297
REMARK  119  A    between atoms: _299  and  _301
REMARK  120  A    between atoms: _301  and  _302
REMARK  121  A    between atoms: _301  and  _304
REMARK  122  A    between atoms: _304  and  _305
REMARK  123  A    between atoms: _307  and  _309
REMARK  124  A    between atoms: _309  and  _310
REMARK  125  A    between atoms: _309  and  _312
REMARK  126  A    between atoms: _312  and  _313
REMARK  127  A    between atoms: _316  and  _318
REMARK  128  A    between atoms: _318  and  _319
REMARK  129  A    between atoms: _318  and  _321
REMARK  130  A    between atoms: _321  and  _322
REMARK  131  A    between atoms: _322  and  _323
REMARK  132  A    between atoms: _325  and  _327
REMARK  133  A    between atoms: _327  and  _328
REMARK  134  A    between atoms: _327  and  _330
REMARK  135  A    between atoms: _330  and  _331
REMARK  136  A    between atoms: _334  and  _336
REMARK  137  A    between atoms: _336  and  _337
REMARK  138  A    between atoms: _336  and  _339
REMARK  139  A    between atoms: _339  and  _340
REMARK  140  A    between atoms: _346  and  _348
REMARK  141  A    between atoms: _348  and  _349
REMARK  142  A    between atoms: _348  and  _351
REMARK  143  A    between atoms: _351  and  _352
REMARK  144  A    between atoms: _358  and  _360
REMARK  145  A    between atoms: _360  and  _361
REMARK  146  A    between atoms: _360  and  _363
REMARK  147  A    between atoms: _366  and  _368
REMARK  148  A    between atoms: _368  and  _369
REMARK  149  A    between atoms: _368  and  _371
REMARK  150  A    between atoms: _371  and  _372
REMARK  151  A    between atoms: _372  and  _373
REMARK  152  A    between atoms: _373  and  _374
REMARK  153  A    between atoms: _383  and  _385
REMARK  154  A    between atoms: _385  and  _386
REMARK  155  A    between atoms: _385  and  _388
REMARK  156  A    between atoms: _388  and  _389
REMARK  157  A    between atoms: _394  and  _396
REMARK  158  A    between atoms: _396  and  _397
REMARK  159  A    between atoms: _396  and  _399
REMARK  160  A    between atoms: _399  and  _400
REMARK  161  A    between atoms: _402  and  _404
REMARK  162  A    between atoms: _404  and  _405
REMARK  163  A    between atoms: _404  and  _407
REMARK  164  A    between atoms: _407  and  _408
REMARK  165  A    between atoms: _411  and  _413
REMARK  166  A    between atoms: _413  and  _414
REMARK  167  A    between atoms: _416  and  _418
REMARK  168  A    between atoms: _418  and  _419
REMARK  169  A    between atoms: _418  and  _421
REMARK  170  A    between atoms: _421  and  _422
REMARK  171  A    between atoms: _425  and  _427
REMARK  172  A    between atoms: _427  and  _428
REMARK  173  A    between atoms: _427  and  _430
REMARK  174  A    between atoms: _430  and  _431
REMARK  175  A    between atoms: _434  and  _436
REMARK  176  A    between atoms: _436  and  _437
REMARK  177  A    between atoms: _436  and  _439
REMARK  178  A    between atoms: _439  and  _440
REMARK  179  A    between atoms: _443  and  _445
REMARK  180  A    between atoms: _445  and  _446
REMARK  181  A    between atoms: _445  and  _448
REMARK  182  A    between atoms: _448  and  _449
REMARK  183  A    between atoms: _449  and  _450
REMARK  184  A    between atoms: _452  and  _454
REMARK  185  A    between atoms: _454  and  _455
REMARK  186  A    between atoms: _454  and  _457
REMARK  187  A    between atoms: _457  and  _458
REMARK  188  A    between atoms: _458  and  _459
REMARK  189  A    between atoms: _462  and  _464
REMARK  190  A    between atoms: _464  and  _465
REMARK  191  A    between atoms: _464  and  _467
REMARK  192  A    between atoms: _467  and  _468
REMARK  193  A    between atoms: _470  and  _472
REMARK  194  A    between atoms: _472  and  _473
REMARK  195  A    between atoms: _472  and  _475
REMARK  196  A    between atoms: _475  and  _476
REMARK  197  A    between atoms: _479  and  _481
REMARK  198  A    between atoms: _481  and  _482
REMARK  199  A    between atoms: _481  and  _484
REMARK  200  A    between atoms: _484  and  _485
REMARK  201  A    between atoms: _487  and  _489
REMARK  202  A    between atoms: _489  and  _490
REMARK  203  A    between atoms: _489  and  _492
REMARK  204  A    between atoms: _492  and  _493
REMARK  205  A    between atoms: _496  and  _498
REMARK  206  A    between atoms: _498  and  _499
REMARK  207  A    between atoms: _498  and  _501
REMARK  208  A    between atoms: _504  and  _506
REMARK  209  A    between atoms: _506  and  _507
REMARK  210  A    between atoms: _506  and  _509
REMARK  211  A    between atoms: _509  and  _510
REMARK  212  A    between atoms: _510  and  _511
REMARK  213  A    between atoms: _511  and  _512
REMARK  214  A    between atoms: _512  and  _513
REMARK  215  A    between atoms: _517  and  _519
REMARK  216  A    between atoms: _519  and  _520
REMARK  217  A    between atoms: _522  and  _524
REMARK  218  A    between atoms: _524  and  _525
REMARK  219  A    between atoms: _524  and  _527
REMARK  220  A    between atoms: _527  and  _528
REMARK  221  A    between atoms: _533  and  _534
REMARK  222  A    between atoms: _536  and  _538
REMARK  223  A    between atoms: _538  and  _539
REMARK  224  A    between atoms: _541  and  _543
REMARK  225  A    between atoms: _543  and  _544
REMARK  226  A    between atoms: _543  and  _546
REMARK  227  A    between atoms: _546  and  _547
REMARK                            x       y       z     vdW  Elec       q    Type
REMARK                         _______ _______ _______ _____ _____    ______ ____
ROOT
ATOM      1  O   HOH     1     -13.801   9.490  24.656  0.00  0.00    +0.000 OA
ENDROOT
TORSDOF 0
REMARK  Name = ../refined-set-2016/3fv2/3fv2_pocket.pdb
REMARK  227 active torsions:
REMARK  status: ('A' for Active; 'I' for Inactive)
REMARK    1  A    between atoms: _1  and  _3
REMARK    2  A    between atoms: _3  and  _4
REMARK    3  A    between atoms: _3  and  _6
REMARK    4  A    between atoms: _6  and  _7
REMARK    5  A    between atoms: _10  and  _12
REMARK    6  A    between atoms: _12  and  _13
REMARK    7  A    between atoms: _12  and  _15
REMARK    8  A    between atoms: _15  and  _16
REMARK    9  A    between atoms: _19  and  _21
REMARK   10  A    between atoms: _21  and  _22
REMARK   11  A    between atoms: _21  and  _24
REMARK   12  A    between atoms: _24  and  _25
REMARK   13  A    between atoms: _25  and  _26
REMARK   14  A    between atoms: _29  and  _31
REMARK   15  A    between atoms: _31  and  _32
REMARK   16  A    between atoms: _31  and  _34
REMARK   17  A    between atoms: _34  and  _35
REMARK   18  A    between atoms: _35  and  _36
REMARK   19  A    between atoms: _40  and  _41
REMARK   20  A    between atoms: _46  and  _48
REMARK   21  A    between atoms: _48  and  _49
REMARK   22  A    between atoms: _48  and  _51
REMARK   23  A    between atoms: _51  and  _52
REMARK   24  A    between atoms: _57  and  _58
REMARK   25  A    between atoms: _60  and  _62
REMARK   26  A    between atoms: _62  and  _63
REMARK   27  A    between atoms: _62  and  _65
REMARK   28  A    between atoms: _65  and  _66
REMARK   29  A    between atoms: _66  and  _67
REMARK   30  A    between atoms: _67  and  _68
REMARK   31  A    between atoms: _68  and  _69
REMARK   32  A    between atoms: _73  and  _75
REMARK   33  A    between atoms: _75  and  _76
REMARK   34  A    between atoms: _75  and  _78
REMARK   35  A    between atoms: _78  and  _79
REMARK   36  A    between atoms: _84  and  _85
REMARK   37  A    between atoms: _87  and  _89
REMARK   38  A    between atoms: _89  and  _90
REMARK   39  A    between atoms: _92  and  _94
REMARK   40  A    between atoms: _94  and  _95
REMARK   41  A    between atoms: _98  and  _100
REMARK   42  A    between atoms: _100  and  _101
REMARK   43  A    between atoms: _100  and  _103
REMARK   44  A    between atoms: _103  and  _104
REMARK   45  A    between atoms: _114  and  _116
REMARK   46  A    between atoms: _116  and  _117
REMARK   47  A    between atoms: _119  and  _121
REMARK   48  A    between atoms: _121  and  _122
REMARK   49  A    between atoms: _121  and  _124
REMARK   50  A    between atoms: _124  and  _125
REMARK   51  A    between atoms: _125  and  _126
REMARK   52  A    between atoms: _128  and  _130
REMARK   53  A    between atoms: _130  and  _131
REMARK   54  A    between atoms: _130  and  _133
REMARK   55  A    between atoms: _136  and  _138
REMARK   56  A    between atoms: _138  and  _139
REMARK   57  A    between atoms: _143  and  _144
REMARK   58  A    between atoms: _149  and  _151
REMARK   59  A    between atoms: _151  and  _152
REMARK   60  A    between atoms: _151  and  _154
REMARK   61  A    between atoms: _154  and  _155
REMARK   62  A    between atoms: _158  and  _160
REMARK   63  A    between atoms: _160  and  _161
REMARK   64  A    between atoms: _160  and  _163
REMARK   65  A    between atoms: _163  and  _164
REMARK   66  A    between atoms: _167  and  _169
REMARK   67  A    between atoms: _169  and  _170
REMARK   68  A    between atoms: _169  and  _172
REMARK   69  A    between atoms: _172  and  _173
REMARK   70  A    between atoms: _176  and  _178
REMARK   71  A    between atoms: _178  and  _179
REMARK   72  A    between atoms: _178  and  _181
REMARK   73  A    between atoms: _181  and  _182
REMARK   74  A    between atoms: _185  and  _187
REMARK   75  A    between atoms: _187  and  _188
REMARK   76  A    between atoms: _187  and  _190
REMARK   77  A    between atoms: _190  and  _191
REMARK   78  A    between atoms: _191  and  _192
REMARK   79  A    between atoms: _192  and  _193
REMARK   80  A    between atoms: _202  and  _204
REMARK   81  A    between atoms: _204  and  _205
REMARK   82  A    between atoms: _204  and  _207
REMARK   83  A    between atoms: _207  and  _208
REMARK   84  A    between atoms: _214  and  _216
REMARK   85  A    between atoms: _216  and  _217
REMARK   86  A    between atoms: _216  and  _219
REMARK   87  A    between atoms: _219  and  _220
REMARK   88  A    between atoms: _223  and  _225
REMARK   89  A    between atoms: _225  and  _226
REMARK   90  A    between atoms: _228  and  _230
REMARK   91  A    between atoms: _230  and  _231
REMARK   92  A    between atoms: _230  and  _233
REMARK   93  A    between atoms: _233  and  _234
REMARK   94  A    between atoms: _237  and  _239
REMARK   95  A    between atoms: _239  and  _240
REMARK   96  A    between atoms: _239  and  _242
REMARK   97  A    between atoms: _242  and  _243
REMARK   98  A    between atoms: _245  and  _247
REMARK   99  A    between atoms: _247  and  _248
REMARK  100  A    between atoms: _247  and  _250
REMARK  101  A    between atoms: _250  and  _251
REMARK  102  A    between atoms: _254  and  _256
REMARK  103  A    between atoms: _256  and  _257
REMARK  104  A    between atoms: _260  and  _262
REMARK  105  A    between atoms: _262  and  _263
REMARK  106  A    between atoms: _262  and  _265
REMARK  107  A    between atoms: _268  and  _270
REMARK  108  A    between atoms: _270  and  _271
REMARK  109  A    between atoms: _270  and  _273
REMARK  110  A    between atoms: _273  and  _274
REMARK  111  A    between atoms: _274  and  _275
REMARK  112  A    between atoms: _275  and  _276
REMARK  113  A    between atoms: _285  and  _287
REMARK  114  A    between atoms: _287  and  _288
REMARK  115  A    between atoms: _287  and  _290
REMARK  116  A    between atoms: _290  and  _291
REMARK  117  A    between atoms: _294  and  _296
REMARK  118  A    between atoms: _296  and  _297
REMARK  119  A    between atoms: _299  and  _301
REMARK  120  A    between atoms: _301  and  _302
REMARK  121  A    between atoms: _301  and  _304
REMARK  122  A    between atoms: _304  and  _305
REMARK  123  A    between atoms: _307  and  _309
REMARK  124  A    between atoms: _309  and  _310
REMARK  125  A    between atoms: _309  and  _312
REMARK  126  A    between atoms: _312  and  _313
REMARK  127  A    between atoms: _316  and  _318
REMARK  128  A    between atoms: _318  and  _319
REMARK  129  A    between atoms: _318  and  _321
REMARK  130  A    between atoms: _321  and  _322
REMARK  131  A    between atoms: _322  and  _323
REMARK  132  A    between atoms: _325  and  _327
REMARK  133  A    between atoms: _327  and  _328
REMARK  134  A    between atoms: _327  and  _330
REMARK  135  A    between atoms: _330  and  _331
REMARK  136  A    between atoms: _334  and  _336
REMARK  137  A    between atoms: _336  and  _337
REMARK  138  A    between atoms: _336  and  _339
REMARK  139  A    between atoms: _339  and  _340
REMARK  140  A    between atoms: _346  and  _348
REMARK  141  A    between atoms: _348  and  _349
REMARK  142  A    between atoms: _348  and  _351
REMARK  143  A    between atoms: _351  and  _352
REMARK  144  A    between atoms: _358  and  _360
REMARK  145  A    between atoms: _360  and  _361
REMARK  146  A    between atoms: _360  and  _363
REMARK  147  A    between atoms: _366  and  _368
REMARK  148  A    between atoms: _368  and  _369
REMARK  149  A    between atoms: _368  and  _371
REMARK  150  A    between atoms: _371  and  _372
REMARK  151  A    between atoms: _372  and  _373
REMARK  152  A    between atoms: _373  and  _374
REMARK  153  A    between atoms: _383  and  _385
REMARK  154  A    between atoms: _385  and  _386
REMARK  155  A    between atoms: _385  and  _388
REMARK  156  A    between atoms: _388  and  _389
REMARK  157  A    between atoms: _394  and  _396
REMARK  158  A    between atoms: _396  and  _397
REMARK  159  A    between atoms: _396  and  _399
REMARK  160  A    between atoms: _399  and  _400
REMARK  161  A    between atoms: _402  and  _404
REMARK  162  A    between atoms: _404  and  _405
REMARK  163  A    between atoms: _404  and  _407
REMARK  164  A    between atoms: _407  and  _408
REMARK  165  A    between atoms: _411  and  _413
REMARK  166  A    between atoms: _413  and  _414
REMARK  167  A    between atoms: _416  and  _418
REMARK  168  A    between atoms: _418  and  _419
REMARK  169  A    between atoms: _418  and  _421
REMARK  170  A    between atoms: _421  and  _422
REMARK  171  A    between atoms: _425  and  _427
REMARK  172  A    between atoms: _427  and  _428
REMARK  173  A    between atoms: _427  and  _430
REMARK  174  A    between atoms: _430  and  _431
REMARK  175  A    between atoms: _434  and  _436
REMARK  176  A    between atoms: _436  and  _437
REMARK  177  A    between atoms: _436  and  _439
REMARK  178  A    between atoms: _439  and  _440
REMARK  179  A    between atoms: _443  and  _445
REMARK  180  A    between atoms: _445  and  _446
REMARK  181  A    between atoms: _445  and  _448
REMARK  182  A    between atoms: _448  and  _449
REMARK  183  A    between atoms: _449  and  _450
REMARK  184  A    between atoms: _452  and  _454
REMARK  185  A    between atoms: _454  and  _455
REMARK  186  A    between atoms: _454  and  _457
REMARK  187  A    between atoms: _457  and  _458
REMARK  188  A    between atoms: _458  and  _459
REMARK  189  A    between atoms: _462  and  _464
REMARK  190  A    between atoms: _464  and  _465
REMARK  191  A    between atoms: _464  and  _467
REMARK  192  A    between atoms: _467  and  _468
REMARK  193  A    between atoms: _470  and  _472
REMARK  194  A    between atoms: _472  and  _473
REMARK  195  A    between atoms: _472  and  _475
REMARK  196  A    between atoms: _475  and  _476
REMARK  197  A    between atoms: _479  and  _481
REMARK  198  A    between atoms: _481  and  _482
REMARK  199  A    between atoms: _481  and  _484
REMARK  200  A    between atoms: _484  and  _485
REMARK  201  A    between atoms: _487  and  _489
REMARK  202  A    between atoms: _489  and  _490
REMARK  203  A    between atoms: _489  and  _492
REMARK  204  A    between atoms: _492  and  _493
REMARK  205  A    between atoms: _496  and  _498
REMARK  206  A    between atoms: _498  and  _499
REMARK  207  A    between atoms: _498  and  _501
REMARK  208  A    between atoms: _504  and  _506
REMARK  209  A    between atoms: _506  and  _507
REMARK  210  A    between atoms: _506  and  _509
REMARK  211  A    between atoms: _509  and  _510
REMARK  212  A    between atoms: _510  and  _511
REMARK  213  A    between atoms: _511  and  _512
REMARK  214  A    between atoms: _512  and  _513
REMARK  215  A    between atoms: _517  and  _519
REMARK  216  A    between atoms: _519  and  _520
REMARK  217  A    between atoms: _522  and  _524
REMARK  218  A    between atoms: _524  and  _525
REMARK  219  A    between atoms: _524  and  _527
REMARK  220  A    between atoms: _527  and  _528
REMARK  221  A    between atoms: _533  and  _534
REMARK  222  A    between atoms: _536  and  _538
REMARK  223  A    between atoms: _538  and  _539
REMARK  224  A    between atoms: _541  and  _543
REMARK  225  A    between atoms: _543  and  _544
REMARK  226  A    between atoms: _543  and  _546
REMARK  227  A    between atoms: _546  and  _547
REMARK                            x       y       z     vdW  Elec       q    Type
REMARK                         _______ _______ _______ _____ _____    ______ ____
ROOT
ATOM      1  O   HOH     1      -1.296  19.917  14.688  0.00  0.00    +0.000 OA
ENDROOT
TORSDOF 0
REMARK  Name = ../refined-set-2016/3fv2/3fv2_pocket.pdb
REMARK  227 active torsions:
REMARK  status: ('A' for Active; 'I' for Inactive)
REMARK    1  A    between atoms: _1  and  _3
REMARK    2  A    between atoms: _3  and  _4
REMARK    3  A    between atoms: _3  and  _6
REMARK    4  A    between atoms: _6  and  _7
REMARK    5  A    between atoms: _10  and  _12
REMARK    6  A    between atoms: _12  and  _13
REMARK    7  A    between atoms: _12  and  _15
REMARK    8  A    between atoms: _15  and  _16
REMARK    9  A    between atoms: _19  and  _21
REMARK   10  A    between atoms: _21  and  _22
REMARK   11  A    between atoms: _21  and  _24
REMARK   12  A    between atoms: _24  and  _25
REMARK   13  A    between atoms: _25  and  _26
REMARK   14  A    between atoms: _29  and  _31
REMARK   15  A    between atoms: _31  and  _32
REMARK   16  A    between atoms: _31  and  _34
REMARK   17  A    between atoms: _34  and  _35
REMARK   18  A    between atoms: _35  and  _36
REMARK   19  A    between atoms: _40  and  _41
REMARK   20  A    between atoms: _46  and  _48
REMARK   21  A    between atoms: _48  and  _49
REMARK   22  A    between atoms: _48  and  _51
REMARK   23  A    between atoms: _51  and  _52
REMARK   24  A    between atoms: _57  and  _58
REMARK   25  A    between atoms: _60  and  _62
REMARK   26  A    between atoms: _62  and  _63
REMARK   27  A    between atoms: _62  and  _65
REMARK   28  A    between atoms: _65  and  _66
REMARK   29  A    between atoms: _66  and  _67
REMARK   30  A    between atoms: _67  and  _68
REMARK   31  A    between atoms: _68  and  _69
REMARK   32  A    between atoms: _73  and  _75
REMARK   33  A    between atoms: _75  and  _76
REMARK   34  A    between atoms: _75  and  _78
REMARK   35  A    between atoms: _78  and  _79
REMARK   36  A    between atoms: _84  and  _85
REMARK   37  A    between atoms: _87  and  _89
REMARK   38  A    between atoms: _89  and  _90
REMARK   39  A    between atoms: _92  and  _94
REMARK   40  A    between atoms: _94  and  _95
REMARK   41  A    between atoms: _98  and  _100
REMARK   42  A    between atoms: _100  and  _101
REMARK   43  A    between atoms: _100  and  _103
REMARK   44  A    between atoms: _103  and  _104
REMARK   45  A    between atoms: _114  and  _116
REMARK   46  A    between atoms: _116  and  _117
REMARK   47  A    between atoms: _119  and  _121
REMARK   48  A    between atoms: _121  and  _122
REMARK   49  A    between atoms: _121  and  _124
REMARK   50  A    between atoms: _124  and  _125
REMARK   51  A    between atoms: _125  and  _126
REMARK   52  A    between atoms: _128  and  _130
REMARK   53  A    between atoms: _130  and  _131
REMARK   54  A    between atoms: _130  and  _133
REMARK   55  A    between atoms: _136  and  _138
REMARK   56  A    between atoms: _138  and  _139
REMARK   57  A    between atoms: _143  and  _144
REMARK   58  A    between atoms: _149  and  _151
REMARK   59  A    between atoms: _151  and  _152
REMARK   60  A    between atoms: _151  and  _154
REMARK   61  A    between atoms: _154  and  _155
REMARK   62  A    between atoms: _158  and  _160
REMARK   63  A    between atoms: _160  and  _161
REMARK   64  A    between atoms: _160  and  _163
REMARK   65  A    between atoms: _163  and  _164
REMARK   66  A    between atoms: _167  and  _169
REMARK   67  A    between atoms: _169  and  _170
REMARK   68  A    between atoms: _169  and  _172
REMARK   69  A    between atoms: _172  and  _173
REMARK   70  A    between atoms: _176  and  _178
REMARK   71  A    between atoms: _178  and  _179
REMARK   72  A    between atoms: _178  and  _181
REMARK   73  A    between atoms: _181  and  _182
REMARK   74  A    between atoms: _185  and  _187
REMARK   75  A    between atoms: _187  and  _188
REMARK   76  A    between atoms: _187  and  _190
REMARK   77  A    between atoms: _190  and  _191
REMARK   78  A    between atoms: _191  and  _192
REMARK   79  A    between atoms: _192  and  _193
REMARK   80  A    between atoms: _202  and  _204
REMARK   81  A    between atoms: _204  and  _205
REMARK   82  A    between atoms: _204  and  _207
REMARK   83  A    between atoms: _207  and  _208
REMARK   84  A    between atoms: _214  and  _216
REMARK   85  A    between atoms: _216  and  _217
REMARK   86  A    between atoms: _216  and  _219
REMARK   87  A    between atoms: _219  and  _220
REMARK   88  A    between atoms: _223  and  _225
REMARK   89  A    between atoms: _225  and  _226
REMARK   90  A    between atoms: _228  and  _230
REMARK   91  A    between atoms: _230  and  _231
REMARK   92  A    between atoms: _230  and  _233
REMARK   93  A    between atoms: _233  and  _234
REMARK   94  A    between atoms: _237  and  _239
REMARK   95  A    between atoms: _239  and  _240
REMARK   96  A    between atoms: _239  and  _242
REMARK   97  A    between atoms: _242  and  _243
REMARK   98  A    between atoms: _245  and  _247
REMARK   99  A    between atoms: _247  and  _248
REMARK  100  A    between atoms: _247  and  _250
REMARK  101  A    between atoms: _250  and  _251
REMARK  102  A    between atoms: _254  and  _256
REMARK  103  A    between atoms: _256  and  _257
REMARK  104  A    between atoms: _260  and  _262
REMARK  105  A    between atoms: _262  and  _263
REMARK  106  A    between atoms: _262  and  _265
REMARK  107  A    between atoms: _268  and  _270
REMARK  108  A    between atoms: _270  and  _271
REMARK  109  A    between atoms: _270  and  _273
REMARK  110  A    between atoms: _273  and  _274
REMARK  111  A    between atoms: _274  and  _275
REMARK  112  A    between atoms: _275  and  _276
REMARK  113  A    between atoms: _285  and  _287
REMARK  114  A    between atoms: _287  and  _288
REMARK  115  A    between atoms: _287  and  _290
REMARK  116  A    between atoms: _290  and  _291
REMARK  117  A    between atoms: _294  and  _296
REMARK  118  A    between atoms: _296  and  _297
REMARK  119  A    between atoms: _299  and  _301
REMARK  120  A    between atoms: _301  and  _302
REMARK  121  A    between atoms: _301  and  _304
REMARK  122  A    between atoms: _304  and  _305
REMARK  123  A    between atoms: _307  and  _309
REMARK  124  A    between atoms: _309  and  _310
REMARK  125  A    between atoms: _309  and  _312
REMARK  126  A    between atoms: _312  and  _313
REMARK  127  A    between atoms: _316  and  _318
REMARK  128  A    between atoms: _318  and  _319
REMARK  129  A    between atoms: _318  and  _321
REMARK  130  A    between atoms: _321  and  _322
REMARK  131  A    between atoms: _322  and  _323
REMARK  132  A    between atoms: _325  and  _327
REMARK  133  A    between atoms: _327  and  _328
REMARK  134  A    between atoms: _327  and  _330
REMARK  135  A    between atoms: _330  and  _331
REMARK  136  A    between atoms: _334  and  _336
REMARK  137  A    between atoms: _336  and  _337
REMARK  138  A    between atoms: _336  and  _339
REMARK  139  A    between atoms: _339  and  _340
REMARK  140  A    between atoms: _346  and  _348
REMARK  141  A    between atoms: _348  and  _349
REMARK  142  A    between atoms: _348  and  _351
REMARK  143  A    between atoms: _351  and  _352
REMARK  144  A    between atoms: _358  and  _360
REMARK  145  A    between atoms: _360  and  _361
REMARK  146  A    between atoms: _360  and  _363
REMARK  147  A    between atoms: _366  and  _368
REMARK  148  A    between atoms: _368  and  _369
REMARK  149  A    between atoms: _368  and  _371
REMARK  150  A    between atoms: _371  and  _372
REMARK  151  A    between atoms: _372  and  _373
REMARK  152  A    between atoms: _373  and  _374
REMARK  153  A    between atoms: _383  and  _385
REMARK  154  A    between atoms: _385  and  _386
REMARK  155  A    between atoms: _385  and  _388
REMARK  156  A    between atoms: _388  and  _389
REMARK  157  A    between atoms: _394  and  _396
REMARK  158  A    between atoms: _396  and  _397
REMARK  159  A    between atoms: _396  and  _399
REMARK  160  A    between atoms: _399  and  _400
REMARK  161  A    between atoms: _402  and  _404
REMARK  162  A    between atoms: _404  and  _405
REMARK  163  A    between atoms: _404  and  _407
REMARK  164  A    between atoms: _407  and  _408
REMARK  165  A    between atoms: _411  and  _413
REMARK  166  A    between atoms: _413  and  _414
REMARK  167  A    between atoms: _416  and  _418
REMARK  168  A    between atoms: _418  and  _419
REMARK  169  A    between atoms: _418  and  _421
REMARK  170  A    between atoms: _421  and  _422
REMARK  171  A    between atoms: _425  and  _427
REMARK  172  A    between atoms: _427  and  _428
REMARK  173  A    between atoms: _427  and  _430
REMARK  174  A    between atoms: _430  and  _431
REMARK  175  A    between atoms: _434  and  _436
REMARK  176  A    between atoms: _436  and  _437
REMARK  177  A    between atoms: _436  and  _439
REMARK  178  A    between atoms: _439  and  _440
REMARK  179  A    between atoms: _443  and  _445
REMARK  180  A    between atoms: _445  and  _446
REMARK  181  A    between atoms: _445  and  _448
REMARK  182  A    between atoms: _448  and  _449
REMARK  183  A    between atoms: _449  and  _450
REMARK  184  A    between atoms: _452  and  _454
REMARK  185  A    between atoms: _454  and  _455
REMARK  186  A    between atoms: _454  and  _457
REMARK  187  A    between atoms: _457  and  _458
REMARK  188  A    between atoms: _458  and  _459
REMARK  189  A    between atoms: _462  and  _464
REMARK  190  A    between atoms: _464  and  _465
REMARK  191  A    between atoms: _464  and  _467
REMARK  192  A    between atoms: _467  and  _468
REMARK  193  A    between atoms: _470  and  _472
REMARK  194  A    between atoms: _472  and  _473
REMARK  195  A    between atoms: _472  and  _475
REMARK  196  A    between atoms: _475  and  _476
REMARK  197  A    between atoms: _479  and  _481
REMARK  198  A    between atoms: _481  and  _482
REMARK  199  A    between atoms: _481  and  _484
REMARK  200  A    between atoms: _484  and  _485
REMARK  201  A    between atoms: _487  and  _489
REMARK  202  A    between atoms: _489  and  _490
REMARK  203  A    between atoms: _489  and  _492
REMARK  204  A    between atoms: _492  and  _493
REMARK  205  A    between atoms: _496  and  _498
REMARK  206  A    between atoms: _498  and  _499
REMARK  207  A    between atoms: _498  and  _501
REMARK  208  A    between atoms: _504  and  _506
REMARK  209  A    between atoms: _506  and  _507
REMARK  210  A    between atoms: _506  and  _509
REMARK  211  A    between atoms: _509  and  _510
REMARK  212  A    between atoms: _510  and  _511
REMARK  213  A    between atoms: _511  and  _512
REMARK  214  A    between atoms: _512  and  _513
REMARK  215  A    between atoms: _517  and  _519
REMARK  216  A    between atoms: _519  and  _520
REMARK  217  A    between atoms: _522  and  _524
REMARK  218  A    between atoms: _524  and  _525
REMARK  219  A    between atoms: _524  and  _527
REMARK  220  A    between atoms: _527  and  _528
REMARK  221  A    between atoms: _533  and  _534
REMARK  222  A    between atoms: _536  and  _538
REMARK  223  A    between atoms: _538  and  _539
REMARK  224  A    between atoms: _541  and  _543
REMARK  225  A    between atoms: _543  and  _544
REMARK  226  A    between atoms: _543  and  _546
REMARK  227  A    between atoms: _546  and  _547
REMARK                            x       y       z     vdW  Elec       q    Type
REMARK                         _______ _______ _______ _____ _____    ______ ____
ROOT
ATOM      1  O   HOH     1      -8.132  17.675  15.148  0.00  0.00    +0.000 OA
ENDROOT
TORSDOF 0
REMARK  Name = ../refined-set-2016/3fv2/3fv2_pocket.pdb
REMARK  227 active torsions:
REMARK  status: ('A' for Active; 'I' for Inactive)
REMARK    1  A    between atoms: _1  and  _3
REMARK    2  A    between atoms: _3  and  _4
REMARK    3  A    between atoms: _3  and  _6
REMARK    4  A    between atoms: _6  and  _7
REMARK    5  A    between atoms: _10  and  _12
REMARK    6  A    between atoms: _12  and  _13
REMARK    7  A    between atoms: _12  and  _15
REMARK    8  A    between atoms: _15  and  _16
REMARK    9  A    between atoms: _19  and  _21
REMARK   10  A    between atoms: _21  and  _22
REMARK   11  A    between atoms: _21  and  _24
REMARK   12  A    between atoms: _24  and  _25
REMARK   13  A    between atoms: _25  and  _26
REMARK   14  A    between atoms: _29  and  _31
REMARK   15  A    between atoms: _31  and  _32
REMARK   16  A    between atoms: _31  and  _34
REMARK   17  A    between atoms: _34  and  _35
REMARK   18  A    between atoms: _35  and  _36
REMARK   19  A    between atoms: _40  and  _41
REMARK   20  A    between atoms: _46  and  _48
REMARK   21  A    between atoms: _48  and  _49
REMARK   22  A    between atoms: _48  and  _51
REMARK   23  A    between atoms: _51  and  _52
REMARK   24  A    between atoms: _57  and  _58
REMARK   25  A    between atoms: _60  and  _62
REMARK   26  A    between atoms: _62  and  _63
REMARK   27  A    between atoms: _62  and  _65
REMARK   28  A    between atoms: _65  and  _66
REMARK   29  A    between atoms: _66  and  _67
REMARK   30  A    between atoms: _67  and  _68
REMARK   31  A    between atoms: _68  and  _69
REMARK   32  A    between atoms: _73  and  _75
REMARK   33  A    between atoms: _75  and  _76
REMARK   34  A    between atoms: _75  and  _78
REMARK   35  A    between atoms: _78  and  _79
REMARK   36  A    between atoms: _84  and  _85
REMARK   37  A    between atoms: _87  and  _89
REMARK   38  A    between atoms: _89  and  _90
REMARK   39  A    between atoms: _92  and  _94
REMARK   40  A    between atoms: _94  and  _95
REMARK   41  A    between atoms: _98  and  _100
REMARK   42  A    between atoms: _100  and  _101
REMARK   43  A    between atoms: _100  and  _103
REMARK   44  A    between atoms: _103  and  _104
REMARK   45  A    between atoms: _114  and  _116
REMARK   46  A    between atoms: _116  and  _117
REMARK   47  A    between atoms: _119  and  _121
REMARK   48  A    between atoms: _121  and  _122
REMARK   49  A    between atoms: _121  and  _124
REMARK   50  A    between atoms: _124  and  _125
REMARK   51  A    between atoms: _125  and  _126
REMARK   52  A    between atoms: _128  and  _130
REMARK   53  A    between atoms: _130  and  _131
REMARK   54  A    between atoms: _130  and  _133
REMARK   55  A    between atoms: _136  and  _138
REMARK   56  A    between atoms: _138  and  _139
REMARK   57  A    between atoms: _143  and  _144
REMARK   58  A    between atoms: _149  and  _151
REMARK   59  A    between atoms: _151  and  _152
REMARK   60  A    between atoms: _151  and  _154
REMARK   61  A    between atoms: _154  and  _155
REMARK   62  A    between atoms: _158  and  _160
REMARK   63  A    between atoms: _160  and  _161
REMARK   64  A    between atoms: _160  and  _163
REMARK   65  A    between atoms: _163  and  _164
REMARK   66  A    between atoms: _167  and  _169
REMARK   67  A    between atoms: _169  and  _170
REMARK   68  A    between atoms: _169  and  _172
REMARK   69  A    between atoms: _172  and  _173
REMARK   70  A    between atoms: _176  and  _178
REMARK   71  A    between atoms: _178  and  _179
REMARK   72  A    between atoms: _178  and  _181
REMARK   73  A    between atoms: _181  and  _182
REMARK   74  A    between atoms: _185  and  _187
REMARK   75  A    between atoms: _187  and  _188
REMARK   76  A    between atoms: _187  and  _190
REMARK   77  A    between atoms: _190  and  _191
REMARK   78  A    between atoms: _191  and  _192
REMARK   79  A    between atoms: _192  and  _193
REMARK   80  A    between atoms: _202  and  _204
REMARK   81  A    between atoms: _204  and  _205
REMARK   82  A    between atoms: _204  and  _207
REMARK   83  A    between atoms: _207  and  _208
REMARK   84  A    between atoms: _214  and  _216
REMARK   85  A    between atoms: _216  and  _217
REMARK   86  A    between atoms: _216  and  _219
REMARK   87  A    between atoms: _219  and  _220
REMARK   88  A    between atoms: _223  and  _225
REMARK   89  A    between atoms: _225  and  _226
REMARK   90  A    between atoms: _228  and  _230
REMARK   91  A    between atoms: _230  and  _231
REMARK   92  A    between atoms: _230  and  _233
REMARK   93  A    between atoms: _233  and  _234
REMARK   94  A    between atoms: _237  and  _239
REMARK   95  A    between atoms: _239  and  _240
REMARK   96  A    between atoms: _239  and  _242
REMARK   97  A    between atoms: _242  and  _243
REMARK   98  A    between atoms: _245  and  _247
REMARK   99  A    between atoms: _247  and  _248
REMARK  100  A    between atoms: _247  and  _250
REMARK  101  A    between atoms: _250  and  _251
REMARK  102  A    between atoms: _254  and  _256
REMARK  103  A    between atoms: _256  and  _257
REMARK  104  A    between atoms: _260  and  _262
REMARK  105  A    between atoms: _262  and  _263
REMARK  106  A    between atoms: _262  and  _265
REMARK  107  A    between atoms: _268  and  _270
REMARK  108  A    between atoms: _270  and  _271
REMARK  109  A    between atoms: _270  and  _273
REMARK  110  A    between atoms: _273  and  _274
REMARK  111  A    between atoms: _274  and  _275
REMARK  112  A    between atoms: _275  and  _276
REMARK  113  A    between atoms: _285  and  _287
REMARK  114  A    between atoms: _287  and  _288
REMARK  115  A    between atoms: _287  and  _290
REMARK  116  A    between atoms: _290  and  _291
REMARK  117  A    between atoms: _294  and  _296
REMARK  118  A    between atoms: _296  and  _297
REMARK  119  A    between atoms: _299  and  _301
REMARK  120  A    between atoms: _301  and  _302
REMARK  121  A    between atoms: _301  and  _304
REMARK  122  A    between atoms: _304  and  _305
REMARK  123  A    between atoms: _307  and  _309
REMARK  124  A    between atoms: _309  and  _310
REMARK  125  A    between atoms: _309  and  _312
REMARK  126  A    between atoms: _312  and  _313
REMARK  127  A    between atoms: _316  and  _318
REMARK  128  A    between atoms: _318  and  _319
REMARK  129  A    between atoms: _318  and  _321
REMARK  130  A    between atoms: _321  and  _322
REMARK  131  A    between atoms: _322  and  _323
REMARK  132  A    between atoms: _325  and  _327
REMARK  133  A    between atoms: _327  and  _328
REMARK  134  A    between atoms: _327  and  _330
REMARK  135  A    between atoms: _330  and  _331
REMARK  136  A    between atoms: _334  and  _336
REMARK  137  A    between atoms: _336  and  _337
REMARK  138  A    between atoms: _336  and  _339
REMARK  139  A    between atoms: _339  and  _340
REMARK  140  A    between atoms: _346  and  _348
REMARK  141  A    between atoms: _348  and  _349
REMARK  142  A    between atoms: _348  and  _351
REMARK  143  A    between atoms: _351  and  _352
REMARK  144  A    between atoms: _358  and  _360
REMARK  145  A    between atoms: _360  and  _361
REMARK  146  A    between atoms: _360  and  _363
REMARK  147  A    between atoms: _366  and  _368
REMARK  148  A    between atoms: _368  and  _369
REMARK  149  A    between atoms: _368  and  _371
REMARK  150  A    between atoms: _371  and  _372
REMARK  151  A    between atoms: _372  and  _373
REMARK  152  A    between atoms: _373  and  _374
REMARK  153  A    between atoms: _383  and  _385
REMARK  154  A    between atoms: _385  and  _386
REMARK  155  A    between atoms: _385  and  _388
REMARK  156  A    between atoms: _388  and  _389
REMARK  157  A    between atoms: _394  and  _396
REMARK  158  A    between atoms: _396  and  _397
REMARK  159  A    between atoms: _396  and  _399
REMARK  160  A    between atoms: _399  and  _400
REMARK  161  A    between atoms: _402  and  _404
REMARK  162  A    between atoms: _404  and  _405
REMARK  163  A    between atoms: _404  and  _407
REMARK  164  A    between atoms: _407  and  _408
REMARK  165  A    between atoms: _411  and  _413
REMARK  166  A    between atoms: _413  and  _414
REMARK  167  A    between atoms: _416  and  _418
REMARK  168  A    between atoms: _418  and  _419
REMARK  169  A    between atoms: _418  and  _421
REMARK  170  A    between atoms: _421  and  _422
REMARK  171  A    between atoms: _425  and  _427
REMARK  172  A    between atoms: _427  and  _428
REMARK  173  A    between atoms: _427  and  _430
REMARK  174  A    between atoms: _430  and  _431
REMARK  175  A    between atoms: _434  and  _436
REMARK  176  A    between atoms: _436  and  _437
REMARK  177  A    between atoms: _436  and  _439
REMARK  178  A    between atoms: _439  and  _440
REMARK  179  A    between atoms: _443  and  _445
REMARK  180  A    between atoms: _445  and  _446
REMARK  181  A    between atoms: _445  and  _448
REMARK  182  A    between atoms: _448  and  _449
REMARK  183  A    between atoms: _449  and  _450
REMARK  184  A    between atoms: _452  and  _454
REMARK  185  A    between atoms: _454  and  _455
REMARK  186  A    between atoms: _454  and  _457
REMARK  187  A    between atoms: _457  and  _458
REMARK  188  A    between atoms: _458  and  _459
REMARK  189  A    between atoms: _462  and  _464
REMARK  190  A    between atoms: _464  and  _465
REMARK  191  A    between atoms: _464  and  _467
REMARK  192  A    between atoms: _467  and  _468
REMARK  193  A    between atoms: _470  and  _472
REMARK  194  A    between atoms: _472  and  _473
REMARK  195  A    between atoms: _472  and  _475
REMARK  196  A    between atoms: _475  and  _476
REMARK  197  A    between atoms: _479  and  _481
REMARK  198  A    between atoms: _481  and  _482
REMARK  199  A    between atoms: _481  and  _484
REMARK  200  A    between atoms: _484  and  _485
REMARK  201  A    between atoms: _487  and  _489
REMARK  202  A    between atoms: _489  and  _490
REMARK  203  A    between atoms: _489  and  _492
REMARK  204  A    between atoms: _492  and  _493
REMARK  205  A    between atoms: _496  and  _498
REMARK  206  A    between atoms: _498  and  _499
REMARK  207  A    between atoms: _498  and  _501
REMARK  208  A    between atoms: _504  and  _506
REMARK  209  A    between atoms: _506  and  _507
REMARK  210  A    between atoms: _506  and  _509
REMARK  211  A    between atoms: _509  and  _510
REMARK  212  A    between atoms: _510  and  _511
REMARK  213  A    between atoms: _511  and  _512
REMARK  214  A    between atoms: _512  and  _513
REMARK  215  A    between atoms: _517  and  _519
REMARK  216  A    between atoms: _519  and  _520
REMARK  217  A    between atoms: _522  and  _524
REMARK  218  A    between atoms: _524  and  _525
REMARK  219  A    between atoms: _524  and  _527
REMARK  220  A    between atoms: _527  and  _528
REMARK  221  A    between atoms: _533  and  _534
REMARK  222  A    between atoms: _536  and  _538
REMARK  223  A    between atoms: _538  and  _539
REMARK  224  A    between atoms: _541  and  _543
REMARK  225  A    between atoms: _543  and  _544
REMARK  226  A    between atoms: _543  and  _546
REMARK  227  A    between atoms: _546  and  _547
REMARK                            x       y       z     vdW  Elec       q    Type
REMARK                         _______ _______ _______ _____ _____    ______ ____
ROOT
ATOM      1  O   HOH     1      -3.084  17.167  24.202  0.00  0.00    +0.000 OA
ENDROOT
TORSDOF 0
