REMARK  Name = ../refined-set-2016/4m3p/4m3p_pocket.pdb
REMARK  127 active torsions:
REMARK  status: ('A' for Active; 'I' for Inactive)
REMARK    1  A    between atoms: _1  and  _3
REMARK    2  A    between atoms: _3  and  _4
REMARK    3  A    between atoms: _3  and  _6
REMARK    4  A    between atoms: _6  and  _7
REMARK    5  A    between atoms: _10  and  _12
REMARK    6  A    between atoms: _12  and  _13
REMARK    7  A    between atoms: _15  and  _17
REMARK    8  A    between atoms: _17  and  _18
REMARK    9  A    between atoms: _20  and  _22
REMARK   10  A    between atoms: _22  and  _23
REMARK   11  A    between atoms: _22  and  _25
REMARK   12  A    between atoms: _25  and  _26
REMARK   13  A    between atoms: _32  and  _34
REMARK   14  A    between atoms: _34  and  _35
REMARK   15  A    between atoms: _34  and  _37
REMARK   16  A    between atoms: _40  and  _42
REMARK   17  A    between atoms: _42  and  _43
REMARK   18  A    between atoms: _42  and  _45
REMARK   19  A    between atoms: _45  and  _46
REMARK   20  A    between atoms: _52  and  _54
REMARK   21  A    between atoms: _54  and  _55
REMARK   22  A    between atoms: _58  and  _60
REMARK   23  A    between atoms: _60  and  _61
REMARK   24  A    between atoms: _60  and  _63
REMARK   25  A    between atoms: _63  and  _64
REMARK   26  A    between atoms: _67  and  _69
REMARK   27  A    between atoms: _69  and  _70
REMARK   28  A    between atoms: _69  and  _72
REMARK   29  A    between atoms: _72  and  _73
REMARK   30  A    between atoms: _73  and  _74
REMARK   31  A    between atoms: _77  and  _79
REMARK   32  A    between atoms: _79  and  _80
REMARK   33  A    between atoms: _79  and  _82
REMARK   34  A    between atoms: _85  and  _87
REMARK   35  A    between atoms: _87  and  _88
REMARK   36  A    between atoms: _87  and  _90
REMARK   37  A    between atoms: _90  and  _91
REMARK   38  A    between atoms: _101  and  _103
REMARK   39  A    between atoms: _103  and  _104
REMARK   40  A    between atoms: _103  and  _106
REMARK   41  A    between atoms: _106  and  _107
REMARK   42  A    between atoms: _110  and  _112
REMARK   43  A    between atoms: _112  and  _113
REMARK   44  A    between atoms: _112  and  _115
REMARK   45  A    between atoms: _115  and  _116
REMARK   46  A    between atoms: _122  and  _124
REMARK   47  A    between atoms: _124  and  _125
REMARK   48  A    between atoms: _124  and  _127
REMARK   49  A    between atoms: _127  and  _128
REMARK   50  A    between atoms: _128  and  _129
REMARK   51  A    between atoms: _134  and  _136
REMARK   52  A    between atoms: _136  and  _137
REMARK   53  A    between atoms: _136  and  _139
REMARK   54  A    between atoms: _139  and  _140
REMARK   55  A    between atoms: _143  and  _145
REMARK   56  A    between atoms: _145  and  _146
REMARK   57  A    between atoms: _145  and  _148
REMARK   58  A    between atoms: _148  and  _149
REMARK   59  A    between atoms: _155  and  _157
REMARK   60  A    between atoms: _157  and  _158
REMARK   61  A    between atoms: _157  and  _160
REMARK   62  A    between atoms: _160  and  _161
REMARK   63  A    between atoms: _164  and  _166
REMARK   64  A    between atoms: _166  and  _167
REMARK   65  A    between atoms: _169  and  _171
REMARK   66  A    between atoms: _171  and  _172
REMARK   67  A    between atoms: _171  and  _174
REMARK   68  A    between atoms: _174  and  _175
REMARK   69  A    between atoms: _177  and  _179
REMARK   70  A    between atoms: _179  and  _180
REMARK   71  A    between atoms: _179  and  _182
REMARK   72  A    between atoms: _182  and  _183
REMARK   73  A    between atoms: _186  and  _188
REMARK   74  A    between atoms: _188  and  _189
REMARK   75  A    between atoms: _188  and  _191
REMARK   76  A    between atoms: _191  and  _192
REMARK   77  A    between atoms: _192  and  _193
REMARK   78  A    between atoms: _196  and  _198
REMARK   79  A    between atoms: _198  and  _199
REMARK   80  A    between atoms: _198  and  _201
REMARK   81  A    between atoms: _201  and  _202
REMARK   82  A    between atoms: _207  and  _208
REMARK   83  A    between atoms: _210  and  _212
REMARK   84  A    between atoms: _212  and  _213
REMARK   85  A    between atoms: _212  and  _215
REMARK   86  A    between atoms: _215  and  _216
REMARK   87  A    between atoms: _219  and  _221
REMARK   88  A    between atoms: _221  and  _222
REMARK   89  A    between atoms: _221  and  _224
REMARK   90  A    between atoms: _226  and  _228
REMARK   91  A    between atoms: _228  and  _229
REMARK   92  A    between atoms: _228  and  _231
REMARK   93  A    between atoms: _231  and  _232
REMARK   94  A    between atoms: _237  and  _239
REMARK   95  A    between atoms: _239  and  _240
REMARK   96  A    between atoms: _239  and  _242
REMARK   97  A    between atoms: _242  and  _243
REMARK   98  A    between atoms: _243  and  ZN_324
REMARK   99  A    between atoms: _244  and  _246
REMARK  100  A    between atoms: _246  and  _247
REMARK  101  A    between atoms: _246  and  _249
REMARK  102  A    between atoms: _249  and  _250
REMARK  103  A    between atoms: _255  and  _257
REMARK  104  A    between atoms: _257  and  _258
REMARK  105  A    between atoms: _257  and  _260
REMARK  106  A    between atoms: _260  and  _261
REMARK  107  A    between atoms: _261  and  _262
REMARK  108  A    between atoms: _267  and  _269
REMARK  109  A    between atoms: _269  and  _270
REMARK  110  A    between atoms: _269  and  _272
REMARK  111  A    between atoms: _272  and  _273
REMARK  112  A    between atoms: _276  and  _278
REMARK  113  A    between atoms: _278  and  _279
REMARK  114  A    between atoms: _278  and  _281
REMARK  115  A    between atoms: _281  and  _282
REMARK  116  A    between atoms: _288  and  _290
REMARK  117  A    between atoms: _290  and  _291
REMARK  118  A    between atoms: _291  and  _292
REMARK  119  A    between atoms: _291  and  _293
REMARK  120  A    between atoms: _293  and  _295
REMARK  121  A    between atoms: _302  and  _303
REMARK  122  A    between atoms: _307  and  _309
REMARK  123  A    between atoms: _309  and  _310
REMARK  124  A    between atoms: _312  and  _314
REMARK  125  A    between atoms: _314  and  _315
REMARK  126  A    between atoms: _314  and  _317
REMARK  127  A    between atoms: _317  and  _318
REMARK                            x       y       z     vdW  Elec       q    Type
REMARK                         _______ _______ _______ _____ _____    ______ ____
ROOT
ATOM      1  C   VAL A   5      72.593   2.151 -37.086  0.00  0.00    +0.241 C 
ATOM      2  N   PHE A   6      72.607   2.977 -36.044  0.00  0.00    -0.297 N 
ATOM      3  H   PHE A   6      73.424   3.604 -35.896  0.00  0.00    +0.150 HD
ATOM      4  O   VAL A   5      71.637   1.402 -37.301  0.00  0.00    -0.273 OA
ENDROOT
BRANCH   2   5
ATOM      5  CA  PHE A   6      71.487   3.014 -35.104  0.00  0.00    +0.153 C 
BRANCH   5   6
ATOM      6  C   PHE A   6      70.166   3.489 -35.744  0.00  0.00    +0.241 C 
ATOM      7  O   PHE A   6      69.101   2.916 -35.511  0.00  0.00    -0.273 OA
ATOM      8  N   ALA A   7      70.230   4.547 -36.558  0.00  0.00    -0.297 N 
ATOM      9  H   ALA A   7      71.149   4.987 -36.766  0.00  0.00    +0.150 HD
BRANCH   8  10
ATOM     10  CA  ALA A   7      68.995   5.093 -37.163  0.00  0.00    +0.149 C 
ATOM     11  CB  ALA A   7      69.300   6.416 -37.839  0.00  0.00    +0.031 C 
BRANCH  10  12
ATOM     12  C   ALA A   7      68.393   4.083 -38.151  0.00  0.00    +0.241 C 
ATOM     13  O   ALA A   7      67.170   3.822 -38.175  0.00  0.00    -0.273 OA
ATOM     14  N   LEU A   8      69.260   3.493 -38.962  0.00  0.00    -0.297 N 
ATOM     15  H   LEU A   8      70.270   3.735 -38.907  0.00  0.00    +0.150 HD
BRANCH  14  16
ATOM     16  CA  LEU A   8      68.801   2.507 -39.929  0.00  0.00    +0.149 C 
BRANCH  16  17
ATOM     17  C   LEU A   8      68.350   1.205 -39.278  0.00  0.00    +0.241 C 
ATOM     18  N   GLU A   9      68.899   0.853 -38.098  0.00  0.00    -0.298 N 
ATOM     19  H   GLU A   9      69.672   1.426 -37.704  0.00  0.00    +0.150 HD
ATOM     20  O   LEU A   8      67.501   0.526 -39.851  0.00  0.00    -0.273 OA
BRANCH  18  21
ATOM     21  CA  GLU A   9      68.420  -0.341 -37.347  0.00  0.00    +0.137 C 
BRANCH  21  22
ATOM     22  C   GLU A   9      66.967  -0.142 -36.969  0.00  0.00    +0.227 C 
ATOM     23  O   GLU A   9      66.153  -1.003 -37.152  0.00  0.00    -0.286 OA
ENDBRANCH  21  22
BRANCH  21  24
ATOM     24  CB  GLU A   9      69.290  -0.637 -36.124  0.00  0.00    +0.039 C 
BRANCH  24  25
ATOM     25  CG  GLU A   9      69.031  -1.977 -35.426  0.00  0.00    +0.116 C 
BRANCH  25  26
ATOM     26  CD  GLU A   9      67.750  -2.027 -34.594  0.00  0.00    +0.365 C 
ATOM     27  OE2 GLU A   9      67.358  -0.968 -34.018  0.00  0.00    -0.246 OA
ATOM     28  OE1 GLU A   9      67.112  -3.123 -34.500  0.00  0.00    -0.246 OA
ENDBRANCH  25  26
ENDBRANCH  24  25
ENDBRANCH  21  24
ENDBRANCH  18  21
ENDBRANCH  16  17
BRANCH  16  29
ATOM     29  CB  LEU A   8      69.874   2.236 -40.981  0.00  0.00    +0.029 C 
BRANCH  29  30
ATOM     30  CG  LEU A   8      70.053   3.390 -41.959  0.00  0.00    +0.002 C 
ATOM     31  CD2 LEU A   8      68.769   3.689 -42.714  0.00  0.00    +0.000 C 
ATOM     32  CD1 LEU A   8      71.193   3.098 -42.920  0.00  0.00    +0.000 C 
ENDBRANCH  29  30
ENDBRANCH  16  29
ENDBRANCH  14  16
ENDBRANCH  10  12
ENDBRANCH   8  10
ENDBRANCH   5   6
BRANCH   5  33
ATOM     33  CB  PHE A   6      71.836   3.905 -33.896  0.00  0.00    +0.055 C 
BRANCH  33  34
ATOM     34  CG  PHE A   6      72.265   3.134 -32.678  0.00  0.00    -0.020 A 
ATOM     35  CD2 PHE A   6      71.493   3.146 -31.526  0.00  0.00    -0.004 A 
ATOM     36  CE2 PHE A   6      71.888   2.436 -30.399  0.00  0.00    -0.000 A 
ATOM     37  CZ  PHE A   6      73.071   1.714 -30.417  0.00  0.00    -0.000 A 
ATOM     38  CE1 PHE A   6      73.845   1.712 -31.552  0.00  0.00    -0.000 A 
ATOM     39  CD1 PHE A   6      73.455   2.423 -32.669  0.00  0.00    -0.004 A 
ENDBRANCH  33  34
ENDBRANCH   5  33
ENDBRANCH   2   5
BRANCH   1  40
ATOM     40  CA  VAL A   5      73.786   2.209 -38.043  0.00  0.00    +0.149 C 
BRANCH  40  42
ATOM     41  C   PHE A   4      73.251   4.367 -38.952  0.00  0.00    +0.241 C 
ATOM     42  N   VAL A   5      74.161   3.590 -38.367  0.00  0.00    -0.297 N 
ATOM     43  H   VAL A   5      75.111   3.952 -38.146  0.00  0.00    +0.150 HD
ATOM     44  O   PHE A   4      72.098   3.979 -39.196  0.00  0.00    -0.273 OA
BRANCH  41  45
ATOM     45  CA  PHE A   4      73.654   5.748 -39.370  0.00  0.00    +0.153 C 
BRANCH  45  48
ATOM     46  C   GLY A   3      73.585   7.047 -37.316  0.00  0.00    +0.243 C 
ATOM     47  O   GLY A   3      72.434   6.696 -37.092  0.00  0.00    -0.273 OA
ATOM     48  N   PHE A   4      74.279   6.622 -38.370  0.00  0.00    -0.297 N 
ATOM     49  H   PHE A   4      75.271   6.911 -38.486  0.00  0.00    +0.150 HD
BRANCH  46  50
ATOM     50  CA  GLY A   3      74.292   7.984 -36.375  0.00  0.00    +0.176 C 
BRANCH  50  52
ATOM     51  C   GLY A   2      74.722  10.197 -37.232  0.00  0.00    +0.243 C 
ATOM     52  N   GLY A   3      73.915   9.366 -36.593  0.00  0.00    -0.295 N 
ATOM     53  H   GLY A   3      72.998   9.709 -36.243  0.00  0.00    +0.150 HD
ATOM     54  O   GLY A   2      75.747   9.825 -37.771  0.00  0.00    -0.273 OA
BRANCH  51  55
ATOM     55  CA  GLY A   2      74.319  11.665 -37.266  0.00  0.00    +0.176 C 
BRANCH  55  58
ATOM     56  C   ASP A   1      75.764  13.170 -38.530  0.00  0.00    +0.239 C 
ATOM     57  O   ASP A   1      76.615  13.244 -37.636  0.00  0.00    -0.274 OA
ATOM     58  N   GLY A   2      74.725  12.340 -38.489  0.00  0.00    -0.296 N 
ATOM     59  H   GLY A   2      74.185  12.168 -39.361  0.00  0.00    +0.150 HD
BRANCH  56  60
ATOM     60  CA  ASP A   1      75.921  14.023 -39.772  0.00  0.00    +0.156 C 
BRANCH  60  61
ATOM     61  N   ASP A   1      77.194  14.729 -39.622  0.00  0.00    -0.238 NA
ATOM     62  H   ASP A   1      78.084  14.251 -39.867  0.00  0.00    +0.142 HD
ENDBRANCH  60  61
BRANCH  60  63
ATOM     63  CB  ASP A   1      75.814  13.227 -41.098  0.00  0.00    +0.140 C 
BRANCH  63  64
ATOM     64  CG  ASP A   1      76.884  12.154 -41.264  0.00  0.00    +0.367 C 
ATOM     65  OD2 ASP A   1      77.698  11.969 -40.316  0.00  0.00    -0.246 OA
ATOM     66  OD1 ASP A   1      76.901  11.467 -42.360  0.00  0.00    -0.246 OA
ENDBRANCH  63  64
ENDBRANCH  60  63
ENDBRANCH  56  60
ENDBRANCH  55  58
ENDBRANCH  51  55
ENDBRANCH  50  52
ENDBRANCH  46  50
ENDBRANCH  45  48
BRANCH  45  67
ATOM     67  CB  PHE A   4      74.535   5.626 -40.597  0.00  0.00    +0.055 C 
BRANCH  67  68
ATOM     68  CG  PHE A   4      74.263   6.662 -41.606  0.00  0.00    -0.020 A 
ATOM     69  CD2 PHE A   4      74.561   7.977 -41.330  0.00  0.00    -0.004 A 
ATOM     70  CE2 PHE A   4      74.304   8.962 -42.275  0.00  0.00    -0.000 A 
ATOM     71  CZ  PHE A   4      73.724   8.605 -43.484  0.00  0.00    -0.000 A 
ATOM     72  CE1 PHE A   4      73.424   7.305 -43.766  0.00  0.00    -0.000 A 
ATOM     73  CD1 PHE A   4      73.708   6.325 -42.834  0.00  0.00    -0.004 A 
ENDBRANCH  67  68
ENDBRANCH  45  67
ENDBRANCH  41  45
ENDBRANCH  40  42
BRANCH  40  74
ATOM     74  CB  VAL A   5      74.964   1.324 -37.536  0.00  0.00    +0.027 C 
ATOM     75  CG2 VAL A   5      75.493   1.806 -36.201  0.00  0.00    +0.002 C 
ATOM     76  CG1 VAL A   5      76.091   1.275 -38.563  0.00  0.00    +0.002 C 
ENDBRANCH  40  74
ENDBRANCH   1  40
TORSDOF 30
REMARK  Name = ../refined-set-2016/4m3p/4m3p_pocket.pdb
REMARK  127 active torsions:
REMARK  status: ('A' for Active; 'I' for Inactive)
REMARK    1  A    between atoms: _1  and  _3
REMARK    2  A    between atoms: _3  and  _4
REMARK    3  A    between atoms: _3  and  _6
REMARK    4  A    between atoms: _6  and  _7
REMARK    5  A    between atoms: _10  and  _12
REMARK    6  A    between atoms: _12  and  _13
REMARK    7  A    between atoms: _15  and  _17
REMARK    8  A    between atoms: _17  and  _18
REMARK    9  A    between atoms: _20  and  _22
REMARK   10  A    between atoms: _22  and  _23
REMARK   11  A    between atoms: _22  and  _25
REMARK   12  A    between atoms: _25  and  _26
REMARK   13  A    between atoms: _32  and  _34
REMARK   14  A    between atoms: _34  and  _35
REMARK   15  A    between atoms: _34  and  _37
REMARK   16  A    between atoms: _40  and  _42
REMARK   17  A    between atoms: _42  and  _43
REMARK   18  A    between atoms: _42  and  _45
REMARK   19  A    between atoms: _45  and  _46
REMARK   20  A    between atoms: _52  and  _54
REMARK   21  A    between atoms: _54  and  _55
REMARK   22  A    between atoms: _58  and  _60
REMARK   23  A    between atoms: _60  and  _61
REMARK   24  A    between atoms: _60  and  _63
REMARK   25  A    between atoms: _63  and  _64
REMARK   26  A    between atoms: _67  and  _69
REMARK   27  A    between atoms: _69  and  _70
REMARK   28  A    between atoms: _69  and  _72
REMARK   29  A    between atoms: _72  and  _73
REMARK   30  A    between atoms: _73  and  _74
REMARK   31  A    between atoms: _77  and  _79
REMARK   32  A    between atoms: _79  and  _80
REMARK   33  A    between atoms: _79  and  _82
REMARK   34  A    between atoms: _85  and  _87
REMARK   35  A    between atoms: _87  and  _88
REMARK   36  A    between atoms: _87  and  _90
REMARK   37  A    between atoms: _90  and  _91
REMARK   38  A    between atoms: _101  and  _103
REMARK   39  A    between atoms: _103  and  _104
REMARK   40  A    between atoms: _103  and  _106
REMARK   41  A    between atoms: _106  and  _107
REMARK   42  A    between atoms: _110  and  _112
REMARK   43  A    between atoms: _112  and  _113
REMARK   44  A    between atoms: _112  and  _115
REMARK   45  A    between atoms: _115  and  _116
REMARK   46  A    between atoms: _122  and  _124
REMARK   47  A    between atoms: _124  and  _125
REMARK   48  A    between atoms: _124  and  _127
REMARK   49  A    between atoms: _127  and  _128
REMARK   50  A    between atoms: _128  and  _129
REMARK   51  A    between atoms: _134  and  _136
REMARK   52  A    between atoms: _136  and  _137
REMARK   53  A    between atoms: _136  and  _139
REMARK   54  A    between atoms: _139  and  _140
REMARK   55  A    between atoms: _143  and  _145
REMARK   56  A    between atoms: _145  and  _146
REMARK   57  A    between atoms: _145  and  _148
REMARK   58  A    between atoms: _148  and  _149
REMARK   59  A    between atoms: _155  and  _157
REMARK   60  A    between atoms: _157  and  _158
REMARK   61  A    between atoms: _157  and  _160
REMARK   62  A    between atoms: _160  and  _161
REMARK   63  A    between atoms: _164  and  _166
REMARK   64  A    between atoms: _166  and  _167
REMARK   65  A    between atoms: _169  and  _171
REMARK   66  A    between atoms: _171  and  _172
REMARK   67  A    between atoms: _171  and  _174
REMARK   68  A    between atoms: _174  and  _175
REMARK   69  A    between atoms: _177  and  _179
REMARK   70  A    between atoms: _179  and  _180
REMARK   71  A    between atoms: _179  and  _182
REMARK   72  A    between atoms: _182  and  _183
REMARK   73  A    between atoms: _186  and  _188
REMARK   74  A    between atoms: _188  and  _189
REMARK   75  A    between atoms: _188  and  _191
REMARK   76  A    between atoms: _191  and  _192
REMARK   77  A    between atoms: _192  and  _193
REMARK   78  A    between atoms: _196  and  _198
REMARK   79  A    between atoms: _198  and  _199
REMARK   80  A    between atoms: _198  and  _201
REMARK   81  A    between atoms: _201  and  _202
REMARK   82  A    between atoms: _207  and  _208
REMARK   83  A    between atoms: _210  and  _212
REMARK   84  A    between atoms: _212  and  _213
REMARK   85  A    between atoms: _212  and  _215
REMARK   86  A    between atoms: _215  and  _216
REMARK   87  A    between atoms: _219  and  _221
REMARK   88  A    between atoms: _221  and  _222
REMARK   89  A    between atoms: _221  and  _224
REMARK   90  A    between atoms: _226  and  _228
REMARK   91  A    between atoms: _228  and  _229
REMARK   92  A    between atoms: _228  and  _231
REMARK   93  A    between atoms: _231  and  _232
REMARK   94  A    between atoms: _237  and  _239
REMARK   95  A    between atoms: _239  and  _240
REMARK   96  A    between atoms: _239  and  _242
REMARK   97  A    between atoms: _242  and  _243
REMARK   98  A    between atoms: _243  and  ZN_324
REMARK   99  A    between atoms: _244  and  _246
REMARK  100  A    between atoms: _246  and  _247
REMARK  101  A    between atoms: _246  and  _249
REMARK  102  A    between atoms: _249  and  _250
REMARK  103  A    between atoms: _255  and  _257
REMARK  104  A    between atoms: _257  and  _258
REMARK  105  A    between atoms: _257  and  _260
REMARK  106  A    between atoms: _260  and  _261
REMARK  107  A    between atoms: _261  and  _262
REMARK  108  A    between atoms: _267  and  _269
REMARK  109  A    between atoms: _269  and  _270
REMARK  110  A    between atoms: _269  and  _272
REMARK  111  A    between atoms: _272  and  _273
REMARK  112  A    between atoms: _276  and  _278
REMARK  113  A    between atoms: _278  and  _279
REMARK  114  A    between atoms: _278  and  _281
REMARK  115  A    between atoms: _281  and  _282
REMARK  116  A    between atoms: _288  and  _290
REMARK  117  A    between atoms: _290  and  _291
REMARK  118  A    between atoms: _291  and  _292
REMARK  119  A    between atoms: _291  and  _293
REMARK  120  A    between atoms: _293  and  _295
REMARK  121  A    between atoms: _302  and  _303
REMARK  122  A    between atoms: _307  and  _309
REMARK  123  A    between atoms: _309  and  _310
REMARK  124  A    between atoms: _312  and  _314
REMARK  125  A    between atoms: _314  and  _315
REMARK  126  A    between atoms: _314  and  _317
REMARK  127  A    between atoms: _317  and  _318
REMARK                            x       y       z     vdW  Elec       q    Type
REMARK                         _______ _______ _______ _____ _____    ______ ____
ROOT
ATOM      1  CA  VAL A   1      70.529  -2.750 -40.276  0.00  0.00    +0.133 C 
ENDROOT
BRANCH   1   2
ATOM      2  CB  VAL A   1      71.349  -1.510 -39.784  0.00  0.00    +0.023 C 
ATOM      3  CG2 VAL A   1      72.520  -1.896 -38.895  0.00  0.00    +0.002 C 
ATOM      4  CG1 VAL A   1      71.853  -0.687 -40.951  0.00  0.00    +0.002 C 
ENDBRANCH   1   2
BRANCH   1   5
ATOM      5  N   VAL A   1      69.249  -2.366 -40.885  0.00  0.00    -0.239 NA
ATOM      6  H   VAL A   1      68.484  -2.055 -40.253  0.00  0.00    +0.142 HD
ENDBRANCH   1   5
BRANCH   1   7
ATOM      7  C   VAL A   1      70.213  -3.681 -39.113  0.00  0.00    +0.224 C 
ATOM      8  O   VAL A   1      69.200  -3.493 -38.406  0.00  0.00    -0.287 OA
ENDBRANCH   1   7
TORSDOF 3
REMARK  Name = ../refined-set-2016/4m3p/4m3p_pocket.pdb
REMARK  127 active torsions:
REMARK  status: ('A' for Active; 'I' for Inactive)
REMARK    1  A    between atoms: _1  and  _3
REMARK    2  A    between atoms: _3  and  _4
REMARK    3  A    between atoms: _3  and  _6
REMARK    4  A    between atoms: _6  and  _7
REMARK    5  A    between atoms: _10  and  _12
REMARK    6  A    between atoms: _12  and  _13
REMARK    7  A    between atoms: _15  and  _17
REMARK    8  A    between atoms: _17  and  _18
REMARK    9  A    between atoms: _20  and  _22
REMARK   10  A    between atoms: _22  and  _23
REMARK   11  A    between atoms: _22  and  _25
REMARK   12  A    between atoms: _25  and  _26
REMARK   13  A    between atoms: _32  and  _34
REMARK   14  A    between atoms: _34  and  _35
REMARK   15  A    between atoms: _34  and  _37
REMARK   16  A    between atoms: _40  and  _42
REMARK   17  A    between atoms: _42  and  _43
REMARK   18  A    between atoms: _42  and  _45
REMARK   19  A    between atoms: _45  and  _46
REMARK   20  A    between atoms: _52  and  _54
REMARK   21  A    between atoms: _54  and  _55
REMARK   22  A    between atoms: _58  and  _60
REMARK   23  A    between atoms: _60  and  _61
REMARK   24  A    between atoms: _60  and  _63
REMARK   25  A    between atoms: _63  and  _64
REMARK   26  A    between atoms: _67  and  _69
REMARK   27  A    between atoms: _69  and  _70
REMARK   28  A    between atoms: _69  and  _72
REMARK   29  A    between atoms: _72  and  _73
REMARK   30  A    between atoms: _73  and  _74
REMARK   31  A    between atoms: _77  and  _79
REMARK   32  A    between atoms: _79  and  _80
REMARK   33  A    between atoms: _79  and  _82
REMARK   34  A    between atoms: _85  and  _87
REMARK   35  A    between atoms: _87  and  _88
REMARK   36  A    between atoms: _87  and  _90
REMARK   37  A    between atoms: _90  and  _91
REMARK   38  A    between atoms: _101  and  _103
REMARK   39  A    between atoms: _103  and  _104
REMARK   40  A    between atoms: _103  and  _106
REMARK   41  A    between atoms: _106  and  _107
REMARK   42  A    between atoms: _110  and  _112
REMARK   43  A    between atoms: _112  and  _113
REMARK   44  A    between atoms: _112  and  _115
REMARK   45  A    between atoms: _115  and  _116
REMARK   46  A    between atoms: _122  and  _124
REMARK   47  A    between atoms: _124  and  _125
REMARK   48  A    between atoms: _124  and  _127
REMARK   49  A    between atoms: _127  and  _128
REMARK   50  A    between atoms: _128  and  _129
REMARK   51  A    between atoms: _134  and  _136
REMARK   52  A    between atoms: _136  and  _137
REMARK   53  A    between atoms: _136  and  _139
REMARK   54  A    between atoms: _139  and  _140
REMARK   55  A    between atoms: _143  and  _145
REMARK   56  A    between atoms: _145  and  _146
REMARK   57  A    between atoms: _145  and  _148
REMARK   58  A    between atoms: _148  and  _149
REMARK   59  A    between atoms: _155  and  _157
REMARK   60  A    between atoms: _157  and  _158
REMARK   61  A    between atoms: _157  and  _160
REMARK   62  A    between atoms: _160  and  _161
REMARK   63  A    between atoms: _164  and  _166
REMARK   64  A    between atoms: _166  and  _167
REMARK   65  A    between atoms: _169  and  _171
REMARK   66  A    between atoms: _171  and  _172
REMARK   67  A    between atoms: _171  and  _174
REMARK   68  A    between atoms: _174  and  _175
REMARK   69  A    between atoms: _177  and  _179
REMARK   70  A    between atoms: _179  and  _180
REMARK   71  A    between atoms: _179  and  _182
REMARK   72  A    between atoms: _182  and  _183
REMARK   73  A    between atoms: _186  and  _188
REMARK   74  A    between atoms: _188  and  _189
REMARK   75  A    between atoms: _188  and  _191
REMARK   76  A    between atoms: _191  and  _192
REMARK   77  A    between atoms: _192  and  _193
REMARK   78  A    between atoms: _196  and  _198
REMARK   79  A    between atoms: _198  and  _199
REMARK   80  A    between atoms: _198  and  _201
REMARK   81  A    between atoms: _201  and  _202
REMARK   82  A    between atoms: _207  and  _208
REMARK   83  A    between atoms: _210  and  _212
REMARK   84  A    between atoms: _212  and  _213
REMARK   85  A    between atoms: _212  and  _215
REMARK   86  A    between atoms: _215  and  _216
REMARK   87  A    between atoms: _219  and  _221
REMARK   88  A    between atoms: _221  and  _222
REMARK   89  A    between atoms: _221  and  _224
REMARK   90  A    between atoms: _226  and  _228
REMARK   91  A    between atoms: _228  and  _229
REMARK   92  A    between atoms: _228  and  _231
REMARK   93  A    between atoms: _231  and  _232
REMARK   94  A    between atoms: _237  and  _239
REMARK   95  A    between atoms: _239  and  _240
REMARK   96  A    between atoms: _239  and  _242
REMARK   97  A    between atoms: _242  and  _243
REMARK   98  A    between atoms: _243  and  ZN_324
REMARK   99  A    between atoms: _244  and  _246
REMARK  100  A    between atoms: _246  and  _247
REMARK  101  A    between atoms: _246  and  _249
REMARK  102  A    between atoms: _249  and  _250
REMARK  103  A    between atoms: _255  and  _257
REMARK  104  A    between atoms: _257  and  _258
REMARK  105  A    between atoms: _257  and  _260
REMARK  106  A    between atoms: _260  and  _261
REMARK  107  A    between atoms: _261  and  _262
REMARK  108  A    between atoms: _267  and  _269
REMARK  109  A    between atoms: _269  and  _270
REMARK  110  A    between atoms: _269  and  _272
REMARK  111  A    between atoms: _272  and  _273
REMARK  112  A    between atoms: _276  and  _278
REMARK  113  A    between atoms: _278  and  _279
REMARK  114  A    between atoms: _278  and  _281
REMARK  115  A    between atoms: _281  and  _282
REMARK  116  A    between atoms: _288  and  _290
REMARK  117  A    between atoms: _290  and  _291
REMARK  118  A    between atoms: _291  and  _292
REMARK  119  A    between atoms: _291  and  _293
REMARK  120  A    between atoms: _293  and  _295
REMARK  121  A    between atoms: _302  and  _303
REMARK  122  A    between atoms: _307  and  _309
REMARK  123  A    between atoms: _309  and  _310
REMARK  124  A    between atoms: _312  and  _314
REMARK  125  A    between atoms: _314  and  _315
REMARK  126  A    between atoms: _314  and  _317
REMARK  127  A    between atoms: _317  and  _318
REMARK                            x       y       z     vdW  Elec       q    Type
REMARK                         _______ _______ _______ _____ _____    ______ ____
ROOT
ATOM      1  CG  TRP A   1      75.950  -2.852 -35.103  0.00  0.00    -0.002 A 
ATOM      2  CD1 TRP A   1      76.505  -3.480 -33.996  0.00  0.00    +0.068 A 
ATOM      3  NE1 TRP A   1      75.712  -3.311 -32.890  0.00  0.00    -0.352 N 
ATOM      4  HE1 TRP A   1      75.927  -3.683 -31.943  0.00  0.00    +0.166 HD
ATOM      5  CE2 TRP A   1      74.607  -2.589 -33.206  0.00  0.00    +0.056 A 
ATOM      6  CZ2 TRP A   1      73.544  -2.185 -32.432  0.00  0.00    +0.017 A 
ATOM      7  CH2 TRP A   1      72.559  -1.431 -33.060  0.00  0.00    +0.001 A 
ATOM      8  CZ3 TRP A   1      72.634  -1.100 -34.415  0.00  0.00    +0.000 A 
ATOM      9  CE3 TRP A   1      73.691  -1.511 -35.207  0.00  0.00    +0.001 A 
ATOM     10  CD2 TRP A   1      74.700  -2.260 -34.625  0.00  0.00    +0.013 A 
ENDROOT
BRANCH   1  11
ATOM     11  CB  TRP A   1      76.516  -2.778 -36.492  0.00  0.00    +0.053 C 
BRANCH  11  12
ATOM     12  CA  TRP A   1      75.782  -3.609 -37.524  0.00  0.00    +0.137 C 
BRANCH  12  13
ATOM     13  N   TRP A   1      75.819  -5.040 -37.164  0.00  0.00    -0.239 NA
ATOM     14  H   TRP A   1      74.946  -5.501 -36.836  0.00  0.00    +0.142 HD
ENDBRANCH  12  13
BRANCH  12  15
ATOM     15  C   TRP A   1      76.389  -3.305 -38.866  0.00  0.00    +0.224 C 
ATOM     16  O   TRP A   1      77.111  -2.333 -39.015  0.00  0.00    -0.287 OA
ENDBRANCH  12  15
ENDBRANCH  11  12
ENDBRANCH   1  11
TORSDOF 4
REMARK  Name = ../refined-set-2016/4m3p/4m3p_pocket.pdb
REMARK  127 active torsions:
REMARK  status: ('A' for Active; 'I' for Inactive)
REMARK    1  A    between atoms: _1  and  _3
REMARK    2  A    between atoms: _3  and  _4
REMARK    3  A    between atoms: _3  and  _6
REMARK    4  A    between atoms: _6  and  _7
REMARK    5  A    between atoms: _10  and  _12
REMARK    6  A    between atoms: _12  and  _13
REMARK    7  A    between atoms: _15  and  _17
REMARK    8  A    between atoms: _17  and  _18
REMARK    9  A    between atoms: _20  and  _22
REMARK   10  A    between atoms: _22  and  _23
REMARK   11  A    between atoms: _22  and  _25
REMARK   12  A    between atoms: _25  and  _26
REMARK   13  A    between atoms: _32  and  _34
REMARK   14  A    between atoms: _34  and  _35
REMARK   15  A    between atoms: _34  and  _37
REMARK   16  A    between atoms: _40  and  _42
REMARK   17  A    between atoms: _42  and  _43
REMARK   18  A    between atoms: _42  and  _45
REMARK   19  A    between atoms: _45  and  _46
REMARK   20  A    between atoms: _52  and  _54
REMARK   21  A    between atoms: _54  and  _55
REMARK   22  A    between atoms: _58  and  _60
REMARK   23  A    between atoms: _60  and  _61
REMARK   24  A    between atoms: _60  and  _63
REMARK   25  A    between atoms: _63  and  _64
REMARK   26  A    between atoms: _67  and  _69
REMARK   27  A    between atoms: _69  and  _70
REMARK   28  A    between atoms: _69  and  _72
REMARK   29  A    between atoms: _72  and  _73
REMARK   30  A    between atoms: _73  and  _74
REMARK   31  A    between atoms: _77  and  _79
REMARK   32  A    between atoms: _79  and  _80
REMARK   33  A    between atoms: _79  and  _82
REMARK   34  A    between atoms: _85  and  _87
REMARK   35  A    between atoms: _87  and  _88
REMARK   36  A    between atoms: _87  and  _90
REMARK   37  A    between atoms: _90  and  _91
REMARK   38  A    between atoms: _101  and  _103
REMARK   39  A    between atoms: _103  and  _104
REMARK   40  A    between atoms: _103  and  _106
REMARK   41  A    between atoms: _106  and  _107
REMARK   42  A    between atoms: _110  and  _112
REMARK   43  A    between atoms: _112  and  _113
REMARK   44  A    between atoms: _112  and  _115
REMARK   45  A    between atoms: _115  and  _116
REMARK   46  A    between atoms: _122  and  _124
REMARK   47  A    between atoms: _124  and  _125
REMARK   48  A    between atoms: _124  and  _127
REMARK   49  A    between atoms: _127  and  _128
REMARK   50  A    between atoms: _128  and  _129
REMARK   51  A    between atoms: _134  and  _136
REMARK   52  A    between atoms: _136  and  _137
REMARK   53  A    between atoms: _136  and  _139
REMARK   54  A    between atoms: _139  and  _140
REMARK   55  A    between atoms: _143  and  _145
REMARK   56  A    between atoms: _145  and  _146
REMARK   57  A    between atoms: _145  and  _148
REMARK   58  A    between atoms: _148  and  _149
REMARK   59  A    between atoms: _155  and  _157
REMARK   60  A    between atoms: _157  and  _158
REMARK   61  A    between atoms: _157  and  _160
REMARK   62  A    between atoms: _160  and  _161
REMARK   63  A    between atoms: _164  and  _166
REMARK   64  A    between atoms: _166  and  _167
REMARK   65  A    between atoms: _169  and  _171
REMARK   66  A    between atoms: _171  and  _172
REMARK   67  A    between atoms: _171  and  _174
REMARK   68  A    between atoms: _174  and  _175
REMARK   69  A    between atoms: _177  and  _179
REMARK   70  A    between atoms: _179  and  _180
REMARK   71  A    between atoms: _179  and  _182
REMARK   72  A    between atoms: _182  and  _183
REMARK   73  A    between atoms: _186  and  _188
REMARK   74  A    between atoms: _188  and  _189
REMARK   75  A    between atoms: _188  and  _191
REMARK   76  A    between atoms: _191  and  _192
REMARK   77  A    between atoms: _192  and  _193
REMARK   78  A    between atoms: _196  and  _198
REMARK   79  A    between atoms: _198  and  _199
REMARK   80  A    between atoms: _198  and  _201
REMARK   81  A    between atoms: _201  and  _202
REMARK   82  A    between atoms: _207  and  _208
REMARK   83  A    between atoms: _210  and  _212
REMARK   84  A    between atoms: _212  and  _213
REMARK   85  A    between atoms: _212  and  _215
REMARK   86  A    between atoms: _215  and  _216
REMARK   87  A    between atoms: _219  and  _221
REMARK   88  A    between atoms: _221  and  _222
REMARK   89  A    between atoms: _221  and  _224
REMARK   90  A    between atoms: _226  and  _228
REMARK   91  A    between atoms: _228  and  _229
REMARK   92  A    between atoms: _228  and  _231
REMARK   93  A    between atoms: _231  and  _232
REMARK   94  A    between atoms: _237  and  _239
REMARK   95  A    between atoms: _239  and  _240
REMARK   96  A    between atoms: _239  and  _242
REMARK   97  A    between atoms: _242  and  _243
REMARK   98  A    between atoms: _243  and  ZN_324
REMARK   99  A    between atoms: _244  and  _246
REMARK  100  A    between atoms: _246  and  _247
REMARK  101  A    between atoms: _246  and  _249
REMARK  102  A    between atoms: _249  and  _250
REMARK  103  A    between atoms: _255  and  _257
REMARK  104  A    between atoms: _257  and  _258
REMARK  105  A    between atoms: _257  and  _260
REMARK  106  A    between atoms: _260  and  _261
REMARK  107  A    between atoms: _261  and  _262
REMARK  108  A    between atoms: _267  and  _269
REMARK  109  A    between atoms: _269  and  _270
REMARK  110  A    between atoms: _269  and  _272
REMARK  111  A    between atoms: _272  and  _273
REMARK  112  A    between atoms: _276  and  _278
REMARK  113  A    between atoms: _278  and  _279
REMARK  114  A    between atoms: _278  and  _281
REMARK  115  A    between atoms: _281  and  _282
REMARK  116  A    between atoms: _288  and  _290
REMARK  117  A    between atoms: _290  and  _291
REMARK  118  A    between atoms: _291  and  _292
REMARK  119  A    between atoms: _291  and  _293
REMARK  120  A    between atoms: _293  and  _295
REMARK  121  A    between atoms: _302  and  _303
REMARK  122  A    between atoms: _307  and  _309
REMARK  123  A    between atoms: _309  and  _310
REMARK  124  A    between atoms: _312  and  _314
REMARK  125  A    between atoms: _314  and  _315
REMARK  126  A    between atoms: _314  and  _317
REMARK  127  A    between atoms: _317  and  _318
REMARK                            x       y       z     vdW  Elec       q    Type
REMARK                         _______ _______ _______ _____ _____    ______ ____
ROOT
ATOM      1  CA  LEU A   1      68.813   9.284 -44.403  0.00  0.00    +0.133 C 
ENDROOT
BRANCH   1   2
ATOM      2  N   LEU A   1      68.285   8.854 -45.700  0.00  0.00    -0.239 NA
ATOM      3  H   LEU A   1      68.465   7.892 -46.053  0.00  0.00    +0.142 HD
ENDBRANCH   1   2
BRANCH   1   4
ATOM      4  C   LEU A   1      69.942  10.301 -44.620  0.00  0.00    +0.224 C 
ATOM      5  O   LEU A   1      70.036  11.315 -43.909  0.00  0.00    -0.287 OA
ENDBRANCH   1   4
BRANCH   1   6
ATOM      6  CB  LEU A   1      69.287   8.096 -43.569  0.00  0.00    +0.025 C 
BRANCH   6   7
ATOM      7  CG  LEU A   1      69.897   8.449 -42.222  0.00  0.00    +0.002 C 
ATOM      8  CD2 LEU A   1      68.880   9.098 -41.318  0.00  0.00    +0.000 C 
ATOM      9  CD1 LEU A   1      70.506   7.200 -41.586  0.00  0.00    +0.000 C 
ENDBRANCH   6   7
ENDBRANCH   1   6
TORSDOF 4
REMARK  Name = ../refined-set-2016/4m3p/4m3p_pocket.pdb
REMARK  127 active torsions:
REMARK  status: ('A' for Active; 'I' for Inactive)
REMARK    1  A    between atoms: _1  and  _3
REMARK    2  A    between atoms: _3  and  _4
REMARK    3  A    between atoms: _3  and  _6
REMARK    4  A    between atoms: _6  and  _7
REMARK    5  A    between atoms: _10  and  _12
REMARK    6  A    between atoms: _12  and  _13
REMARK    7  A    between atoms: _15  and  _17
REMARK    8  A    between atoms: _17  and  _18
REMARK    9  A    between atoms: _20  and  _22
REMARK   10  A    between atoms: _22  and  _23
REMARK   11  A    between atoms: _22  and  _25
REMARK   12  A    between atoms: _25  and  _26
REMARK   13  A    between atoms: _32  and  _34
REMARK   14  A    between atoms: _34  and  _35
REMARK   15  A    between atoms: _34  and  _37
REMARK   16  A    between atoms: _40  and  _42
REMARK   17  A    between atoms: _42  and  _43
REMARK   18  A    between atoms: _42  and  _45
REMARK   19  A    between atoms: _45  and  _46
REMARK   20  A    between atoms: _52  and  _54
REMARK   21  A    between atoms: _54  and  _55
REMARK   22  A    between atoms: _58  and  _60
REMARK   23  A    between atoms: _60  and  _61
REMARK   24  A    between atoms: _60  and  _63
REMARK   25  A    between atoms: _63  and  _64
REMARK   26  A    between atoms: _67  and  _69
REMARK   27  A    between atoms: _69  and  _70
REMARK   28  A    between atoms: _69  and  _72
REMARK   29  A    between atoms: _72  and  _73
REMARK   30  A    between atoms: _73  and  _74
REMARK   31  A    between atoms: _77  and  _79
REMARK   32  A    between atoms: _79  and  _80
REMARK   33  A    between atoms: _79  and  _82
REMARK   34  A    between atoms: _85  and  _87
REMARK   35  A    between atoms: _87  and  _88
REMARK   36  A    between atoms: _87  and  _90
REMARK   37  A    between atoms: _90  and  _91
REMARK   38  A    between atoms: _101  and  _103
REMARK   39  A    between atoms: _103  and  _104
REMARK   40  A    between atoms: _103  and  _106
REMARK   41  A    between atoms: _106  and  _107
REMARK   42  A    between atoms: _110  and  _112
REMARK   43  A    between atoms: _112  and  _113
REMARK   44  A    between atoms: _112  and  _115
REMARK   45  A    between atoms: _115  and  _116
REMARK   46  A    between atoms: _122  and  _124
REMARK   47  A    between atoms: _124  and  _125
REMARK   48  A    between atoms: _124  and  _127
REMARK   49  A    between atoms: _127  and  _128
REMARK   50  A    between atoms: _128  and  _129
REMARK   51  A    between atoms: _134  and  _136
REMARK   52  A    between atoms: _136  and  _137
REMARK   53  A    between atoms: _136  and  _139
REMARK   54  A    between atoms: _139  and  _140
REMARK   55  A    between atoms: _143  and  _145
REMARK   56  A    between atoms: _145  and  _146
REMARK   57  A    between atoms: _145  and  _148
REMARK   58  A    between atoms: _148  and  _149
REMARK   59  A    between atoms: _155  and  _157
REMARK   60  A    between atoms: _157  and  _158
REMARK   61  A    between atoms: _157  and  _160
REMARK   62  A    between atoms: _160  and  _161
REMARK   63  A    between atoms: _164  and  _166
REMARK   64  A    between atoms: _166  and  _167
REMARK   65  A    between atoms: _169  and  _171
REMARK   66  A    between atoms: _171  and  _172
REMARK   67  A    between atoms: _171  and  _174
REMARK   68  A    between atoms: _174  and  _175
REMARK   69  A    between atoms: _177  and  _179
REMARK   70  A    between atoms: _179  and  _180
REMARK   71  A    between atoms: _179  and  _182
REMARK   72  A    between atoms: _182  and  _183
REMARK   73  A    between atoms: _186  and  _188
REMARK   74  A    between atoms: _188  and  _189
REMARK   75  A    between atoms: _188  and  _191
REMARK   76  A    between atoms: _191  and  _192
REMARK   77  A    between atoms: _192  and  _193
REMARK   78  A    between atoms: _196  and  _198
REMARK   79  A    between atoms: _198  and  _199
REMARK   80  A    between atoms: _198  and  _201
REMARK   81  A    between atoms: _201  and  _202
REMARK   82  A    between atoms: _207  and  _208
REMARK   83  A    between atoms: _210  and  _212
REMARK   84  A    between atoms: _212  and  _213
REMARK   85  A    between atoms: _212  and  _215
REMARK   86  A    between atoms: _215  and  _216
REMARK   87  A    between atoms: _219  and  _221
REMARK   88  A    between atoms: _221  and  _222
REMARK   89  A    between atoms: _221  and  _224
REMARK   90  A    between atoms: _226  and  _228
REMARK   91  A    between atoms: _228  and  _229
REMARK   92  A    between atoms: _228  and  _231
REMARK   93  A    between atoms: _231  and  _232
REMARK   94  A    between atoms: _237  and  _239
REMARK   95  A    between atoms: _239  and  _240
REMARK   96  A    between atoms: _239  and  _242
REMARK   97  A    between atoms: _242  and  _243
REMARK   98  A    between atoms: _243  and  ZN_324
REMARK   99  A    between atoms: _244  and  _246
REMARK  100  A    between atoms: _246  and  _247
REMARK  101  A    between atoms: _246  and  _249
REMARK  102  A    between atoms: _249  and  _250
REMARK  103  A    between atoms: _255  and  _257
REMARK  104  A    between atoms: _257  and  _258
REMARK  105  A    between atoms: _257  and  _260
REMARK  106  A    between atoms: _260  and  _261
REMARK  107  A    between atoms: _261  and  _262
REMARK  108  A    between atoms: _267  and  _269
REMARK  109  A    between atoms: _269  and  _270
REMARK  110  A    between atoms: _269  and  _272
REMARK  111  A    between atoms: _272  and  _273
REMARK  112  A    between atoms: _276  and  _278
REMARK  113  A    between atoms: _278  and  _279
REMARK  114  A    between atoms: _278  and  _281
REMARK  115  A    between atoms: _281  and  _282
REMARK  116  A    between atoms: _288  and  _290
REMARK  117  A    between atoms: _290  and  _291
REMARK  118  A    between atoms: _291  and  _292
REMARK  119  A    between atoms: _291  and  _293
REMARK  120  A    between atoms: _293  and  _295
REMARK  121  A    between atoms: _302  and  _303
REMARK  122  A    between atoms: _307  and  _309
REMARK  123  A    between atoms: _309  and  _310
REMARK  124  A    between atoms: _312  and  _314
REMARK  125  A    between atoms: _314  and  _315
REMARK  126  A    between atoms: _314  and  _317
REMARK  127  A    between atoms: _317  and  _318
REMARK                            x       y       z     vdW  Elec       q    Type
REMARK                         _______ _______ _______ _____ _____    ______ ____
ROOT
ATOM      1  CB  PHE A   1      72.232  13.949 -42.166  0.00  0.00    +0.051 C 
ENDROOT
BRANCH   1   2
ATOM      2  CG  PHE A   1      71.943  12.947 -41.071  0.00  0.00    -0.020 A 
ATOM      3  CD2 PHE A   1      71.473  13.354 -39.838  0.00  0.00    -0.004 A 
ATOM      4  CE2 PHE A   1      71.196  12.445 -38.835  0.00  0.00    -0.000 A 
ATOM      5  CZ  PHE A   1      71.454  11.101 -39.041  0.00  0.00    -0.000 A 
ATOM      6  CE1 PHE A   1      71.940  10.687 -40.255  0.00  0.00    -0.000 A 
ATOM      7  CD1 PHE A   1      72.189  11.607 -41.261  0.00  0.00    -0.004 A 
ENDBRANCH   1   2
BRANCH   1   8
ATOM      8  CA  PHE A   1      71.065  14.916 -42.432  0.00  0.00    +0.137 C 
BRANCH   8   9
ATOM      9  N   PHE A   1      69.959  14.234 -43.081  0.00  0.00    -0.239 NA
ATOM     10  H   PHE A   1      70.090  13.275 -43.462  0.00  0.00    +0.142 HD
ENDBRANCH   8   9
BRANCH   8  11
ATOM     11  C   PHE A   1      71.486  16.174 -43.171  0.00  0.00    +0.224 C 
ATOM     12  O   PHE A   1      71.683  17.209 -42.552  0.00  0.00    -0.287 OA
ENDBRANCH   8  11
ENDBRANCH   1   8
TORSDOF 4
REMARK  Name = ../refined-set-2016/4m3p/4m3p_pocket.pdb
REMARK  127 active torsions:
REMARK  status: ('A' for Active; 'I' for Inactive)
REMARK    1  A    between atoms: _1  and  _3
REMARK    2  A    between atoms: _3  and  _4
REMARK    3  A    between atoms: _3  and  _6
REMARK    4  A    between atoms: _6  and  _7
REMARK    5  A    between atoms: _10  and  _12
REMARK    6  A    between atoms: _12  and  _13
REMARK    7  A    between atoms: _15  and  _17
REMARK    8  A    between atoms: _17  and  _18
REMARK    9  A    between atoms: _20  and  _22
REMARK   10  A    between atoms: _22  and  _23
REMARK   11  A    between atoms: _22  and  _25
REMARK   12  A    between atoms: _25  and  _26
REMARK   13  A    between atoms: _32  and  _34
REMARK   14  A    between atoms: _34  and  _35
REMARK   15  A    between atoms: _34  and  _37
REMARK   16  A    between atoms: _40  and  _42
REMARK   17  A    between atoms: _42  and  _43
REMARK   18  A    between atoms: _42  and  _45
REMARK   19  A    between atoms: _45  and  _46
REMARK   20  A    between atoms: _52  and  _54
REMARK   21  A    between atoms: _54  and  _55
REMARK   22  A    between atoms: _58  and  _60
REMARK   23  A    between atoms: _60  and  _61
REMARK   24  A    between atoms: _60  and  _63
REMARK   25  A    between atoms: _63  and  _64
REMARK   26  A    between atoms: _67  and  _69
REMARK   27  A    between atoms: _69  and  _70
REMARK   28  A    between atoms: _69  and  _72
REMARK   29  A    between atoms: _72  and  _73
REMARK   30  A    between atoms: _73  and  _74
REMARK   31  A    between atoms: _77  and  _79
REMARK   32  A    between atoms: _79  and  _80
REMARK   33  A    between atoms: _79  and  _82
REMARK   34  A    between atoms: _85  and  _87
REMARK   35  A    between atoms: _87  and  _88
REMARK   36  A    between atoms: _87  and  _90
REMARK   37  A    between atoms: _90  and  _91
REMARK   38  A    between atoms: _101  and  _103
REMARK   39  A    between atoms: _103  and  _104
REMARK   40  A    between atoms: _103  and  _106
REMARK   41  A    between atoms: _106  and  _107
REMARK   42  A    between atoms: _110  and  _112
REMARK   43  A    between atoms: _112  and  _113
REMARK   44  A    between atoms: _112  and  _115
REMARK   45  A    between atoms: _115  and  _116
REMARK   46  A    between atoms: _122  and  _124
REMARK   47  A    between atoms: _124  and  _125
REMARK   48  A    between atoms: _124  and  _127
REMARK   49  A    between atoms: _127  and  _128
REMARK   50  A    between atoms: _128  and  _129
REMARK   51  A    between atoms: _134  and  _136
REMARK   52  A    between atoms: _136  and  _137
REMARK   53  A    between atoms: _136  and  _139
REMARK   54  A    between atoms: _139  and  _140
REMARK   55  A    between atoms: _143  and  _145
REMARK   56  A    between atoms: _145  and  _146
REMARK   57  A    between atoms: _145  and  _148
REMARK   58  A    between atoms: _148  and  _149
REMARK   59  A    between atoms: _155  and  _157
REMARK   60  A    between atoms: _157  and  _158
REMARK   61  A    between atoms: _157  and  _160
REMARK   62  A    between atoms: _160  and  _161
REMARK   63  A    between atoms: _164  and  _166
REMARK   64  A    between atoms: _166  and  _167
REMARK   65  A    between atoms: _169  and  _171
REMARK   66  A    between atoms: _171  and  _172
REMARK   67  A    between atoms: _171  and  _174
REMARK   68  A    between atoms: _174  and  _175
REMARK   69  A    between atoms: _177  and  _179
REMARK   70  A    between atoms: _179  and  _180
REMARK   71  A    between atoms: _179  and  _182
REMARK   72  A    between atoms: _182  and  _183
REMARK   73  A    between atoms: _186  and  _188
REMARK   74  A    between atoms: _188  and  _189
REMARK   75  A    between atoms: _188  and  _191
REMARK   76  A    between atoms: _191  and  _192
REMARK   77  A    between atoms: _192  and  _193
REMARK   78  A    between atoms: _196  and  _198
REMARK   79  A    between atoms: _198  and  _199
REMARK   80  A    between atoms: _198  and  _201
REMARK   81  A    between atoms: _201  and  _202
REMARK   82  A    between atoms: _207  and  _208
REMARK   83  A    between atoms: _210  and  _212
REMARK   84  A    between atoms: _212  and  _213
REMARK   85  A    between atoms: _212  and  _215
REMARK   86  A    between atoms: _215  and  _216
REMARK   87  A    between atoms: _219  and  _221
REMARK   88  A    between atoms: _221  and  _222
REMARK   89  A    between atoms: _221  and  _224
REMARK   90  A    between atoms: _226  and  _228
REMARK   91  A    between atoms: _228  and  _229
REMARK   92  A    between atoms: _228  and  _231
REMARK   93  A    between atoms: _231  and  _232
REMARK   94  A    between atoms: _237  and  _239
REMARK   95  A    between atoms: _239  and  _240
REMARK   96  A    between atoms: _239  and  _242
REMARK   97  A    between atoms: _242  and  _243
REMARK   98  A    between atoms: _243  and  ZN_324
REMARK   99  A    between atoms: _244  and  _246
REMARK  100  A    between atoms: _246  and  _247
REMARK  101  A    between atoms: _246  and  _249
REMARK  102  A    between atoms: _249  and  _250
REMARK  103  A    between atoms: _255  and  _257
REMARK  104  A    between atoms: _257  and  _258
REMARK  105  A    between atoms: _257  and  _260
REMARK  106  A    between atoms: _260  and  _261
REMARK  107  A    between atoms: _261  and  _262
REMARK  108  A    between atoms: _267  and  _269
REMARK  109  A    between atoms: _269  and  _270
REMARK  110  A    between atoms: _269  and  _272
REMARK  111  A    between atoms: _272  and  _273
REMARK  112  A    between atoms: _276  and  _278
REMARK  113  A    between atoms: _278  and  _279
REMARK  114  A    between atoms: _278  and  _281
REMARK  115  A    between atoms: _281  and  _282
REMARK  116  A    between atoms: _288  and  _290
REMARK  117  A    between atoms: _290  and  _291
REMARK  118  A    between atoms: _291  and  _292
REMARK  119  A    between atoms: _291  and  _293
REMARK  120  A    between atoms: _293  and  _295
REMARK  121  A    between atoms: _302  and  _303
REMARK  122  A    between atoms: _307  and  _309
REMARK  123  A    between atoms: _309  and  _310
REMARK  124  A    between atoms: _312  and  _314
REMARK  125  A    between atoms: _314  and  _315
REMARK  126  A    between atoms: _314  and  _317
REMARK  127  A    between atoms: _317  and  _318
REMARK                            x       y       z     vdW  Elec       q    Type
REMARK                         _______ _______ _______ _____ _____    ______ ____
ROOT
ATOM      1  C   THR A   2      79.726   5.898 -45.257  0.00  0.00    +0.243 C 
ATOM      2  O   THR A   2      80.248   5.692 -44.163  0.00  0.00    -0.273 OA
ATOM      3  N   PHE A   3      78.645   5.230 -45.665  0.00  0.00    -0.297 N 
ATOM      4  H   PHE A   3      78.195   5.510 -46.560  0.00  0.00    +0.150 HD
ENDROOT
BRANCH   3   5
ATOM      5  CA  PHE A   3      78.064   4.118 -44.905  0.00  0.00    +0.153 C 
BRANCH   5   6
ATOM      6  C   PHE A   3      78.858   2.832 -45.187  0.00  0.00    +0.241 C 
ATOM      7  N   THR A   4      80.060   2.778 -44.650  0.00  0.00    -0.296 N 
ATOM      8  H   THR A   4      80.327   3.485 -43.936  0.00  0.00    +0.150 HD
ATOM      9  O   PHE A   3      78.371   1.922 -45.851  0.00  0.00    -0.273 OA
BRANCH   7  10
ATOM     10  CA  THR A   4      81.031   1.750 -45.031  0.00  0.00    +0.164 C 
BRANCH  10  11
ATOM     11  CB  THR A   4      82.205   2.386 -45.780  0.00  0.00    +0.136 C 
ATOM     12  CG2 THR A   4      81.748   2.819 -47.180  0.00  0.00    +0.034 C 
BRANCH  11  13
ATOM     13  OG1 THR A   4      82.652   3.543 -45.077  0.00  0.00    -0.382 OA
ATOM     14  HG1 THR A   4      81.910   4.196 -45.013  0.00  0.00    +0.210 HD
ENDBRANCH  11  13
ENDBRANCH  10  11
BRANCH  10  15
ATOM     15  C   THR A   4      81.554   0.957 -43.846  0.00  0.00    +0.229 C 
ATOM     16  O   THR A   4      81.339   1.329 -42.698  0.00  0.00    -0.286 OA
ENDBRANCH  10  15
ENDBRANCH   7  10
ENDBRANCH   5   6
BRANCH   5  17
ATOM     17  CB  PHE A   3      76.598   3.928 -45.253  0.00  0.00    +0.055 C 
BRANCH  17  18
ATOM     18  CG  PHE A   3      75.850   2.998 -44.344  0.00  0.00    -0.020 A 
ATOM     19  CD2 PHE A   3      76.019   3.041 -42.970  0.00  0.00    -0.004 A 
ATOM     20  CE2 PHE A   3      75.294   2.198 -42.147  0.00  0.00    -0.000 A 
ATOM     21  CZ  PHE A   3      74.361   1.327 -42.685  0.00  0.00    -0.000 A 
ATOM     22  CE1 PHE A   3      74.165   1.302 -44.050  0.00  0.00    -0.000 A 
ATOM     23  CD1 PHE A   3      74.896   2.146 -44.865  0.00  0.00    -0.004 A 
ENDBRANCH  17  18
ENDBRANCH   5  17
ENDBRANCH   3   5
BRANCH   1  24
ATOM     24  CA  THR A   2      80.266   7.006 -46.164  0.00  0.00    +0.176 C 
BRANCH  24  27
ATOM     25  C   GLN A   1      79.671   8.847 -44.708  0.00  0.00    +0.238 C 
ATOM     26  O   GLN A   1      78.466   8.499 -44.699  0.00  0.00    -0.274 OA
ATOM     27  N   THR A   2      80.610   8.176 -45.367  0.00  0.00    -0.295 N 
ATOM     28  H   THR A   2      81.600   8.489 -45.313  0.00  0.00    +0.150 HD
BRANCH  25  29
ATOM     29  CA  GLN A   1      80.165  10.044 -43.928  0.00  0.00    +0.145 C 
BRANCH  29  30
ATOM     30  N   GLN A   1      79.248  11.186 -44.146  0.00  0.00    -0.238 NA
ATOM     31  H   GLN A   1      78.588  11.468 -43.393  0.00  0.00    +0.142 HD
ENDBRANCH  29  30
BRANCH  29  32
ATOM     32  CB  GLN A   1      80.281   9.680 -42.443  0.00  0.00    +0.036 C 
BRANCH  32  33
ATOM     33  CG  GLN A   1      80.874  10.801 -41.602  0.00  0.00    +0.087 C 
BRANCH  33  34
ATOM     34  CD  GLN A   1      81.137  10.374 -40.170  0.00  0.00    +0.219 C 
ATOM     35  OE1 GLN A   1      80.787  11.082 -39.230  0.00  0.00    -0.275 OA
ATOM     36  NE2 GLN A   1      81.746   9.197 -40.000  0.00  0.00    -0.329 N 
ATOM     37 HE21 GLN A   1      81.942   8.846 -39.041  0.00  0.00    +0.145 HD
ATOM     38 HE22 GLN A   1      82.024   8.631 -40.827  0.00  0.00    +0.145 HD
ENDBRANCH  33  34
ENDBRANCH  32  33
ENDBRANCH  29  32
ENDBRANCH  25  29
ENDBRANCH  24  27
BRANCH  24  39
ATOM     39  CB  THR A   2      81.481   6.552 -46.995  0.00  0.00    +0.137 C 
ATOM     40  CG2 THR A   2      81.910   7.669 -47.929  0.00  0.00    +0.034 C 
BRANCH  39  41
ATOM     41  OG1 THR A   2      82.597   6.208 -46.140  0.00  0.00    -0.382 OA
ATOM     42  HG1 THR A   2      82.333   5.470 -45.535  0.00  0.00    +0.210 HD
ENDBRANCH  39  41
ENDBRANCH  24  39
ENDBRANCH   1  24
TORSDOF 17
REMARK  Name = ../refined-set-2016/4m3p/4m3p_pocket.pdb
REMARK  127 active torsions:
REMARK  status: ('A' for Active; 'I' for Inactive)
REMARK    1  A    between atoms: _1  and  _3
REMARK    2  A    between atoms: _3  and  _4
REMARK    3  A    between atoms: _3  and  _6
REMARK    4  A    between atoms: _6  and  _7
REMARK    5  A    between atoms: _10  and  _12
REMARK    6  A    between atoms: _12  and  _13
REMARK    7  A    between atoms: _15  and  _17
REMARK    8  A    between atoms: _17  and  _18
REMARK    9  A    between atoms: _20  and  _22
REMARK   10  A    between atoms: _22  and  _23
REMARK   11  A    between atoms: _22  and  _25
REMARK   12  A    between atoms: _25  and  _26
REMARK   13  A    between atoms: _32  and  _34
REMARK   14  A    between atoms: _34  and  _35
REMARK   15  A    between atoms: _34  and  _37
REMARK   16  A    between atoms: _40  and  _42
REMARK   17  A    between atoms: _42  and  _43
REMARK   18  A    between atoms: _42  and  _45
REMARK   19  A    between atoms: _45  and  _46
REMARK   20  A    between atoms: _52  and  _54
REMARK   21  A    between atoms: _54  and  _55
REMARK   22  A    between atoms: _58  and  _60
REMARK   23  A    between atoms: _60  and  _61
REMARK   24  A    between atoms: _60  and  _63
REMARK   25  A    between atoms: _63  and  _64
REMARK   26  A    between atoms: _67  and  _69
REMARK   27  A    between atoms: _69  and  _70
REMARK   28  A    between atoms: _69  and  _72
REMARK   29  A    between atoms: _72  and  _73
REMARK   30  A    between atoms: _73  and  _74
REMARK   31  A    between atoms: _77  and  _79
REMARK   32  A    between atoms: _79  and  _80
REMARK   33  A    between atoms: _79  and  _82
REMARK   34  A    between atoms: _85  and  _87
REMARK   35  A    between atoms: _87  and  _88
REMARK   36  A    between atoms: _87  and  _90
REMARK   37  A    between atoms: _90  and  _91
REMARK   38  A    between atoms: _101  and  _103
REMARK   39  A    between atoms: _103  and  _104
REMARK   40  A    between atoms: _103  and  _106
REMARK   41  A    between atoms: _106  and  _107
REMARK   42  A    between atoms: _110  and  _112
REMARK   43  A    between atoms: _112  and  _113
REMARK   44  A    between atoms: _112  and  _115
REMARK   45  A    between atoms: _115  and  _116
REMARK   46  A    between atoms: _122  and  _124
REMARK   47  A    between atoms: _124  and  _125
REMARK   48  A    between atoms: _124  and  _127
REMARK   49  A    between atoms: _127  and  _128
REMARK   50  A    between atoms: _128  and  _129
REMARK   51  A    between atoms: _134  and  _136
REMARK   52  A    between atoms: _136  and  _137
REMARK   53  A    between atoms: _136  and  _139
REMARK   54  A    between atoms: _139  and  _140
REMARK   55  A    between atoms: _143  and  _145
REMARK   56  A    between atoms: _145  and  _146
REMARK   57  A    between atoms: _145  and  _148
REMARK   58  A    between atoms: _148  and  _149
REMARK   59  A    between atoms: _155  and  _157
REMARK   60  A    between atoms: _157  and  _158
REMARK   61  A    between atoms: _157  and  _160
REMARK   62  A    between atoms: _160  and  _161
REMARK   63  A    between atoms: _164  and  _166
REMARK   64  A    between atoms: _166  and  _167
REMARK   65  A    between atoms: _169  and  _171
REMARK   66  A    between atoms: _171  and  _172
REMARK   67  A    between atoms: _171  and  _174
REMARK   68  A    between atoms: _174  and  _175
REMARK   69  A    between atoms: _177  and  _179
REMARK   70  A    between atoms: _179  and  _180
REMARK   71  A    between atoms: _179  and  _182
REMARK   72  A    between atoms: _182  and  _183
REMARK   73  A    between atoms: _186  and  _188
REMARK   74  A    between atoms: _188  and  _189
REMARK   75  A    between atoms: _188  and  _191
REMARK   76  A    between atoms: _191  and  _192
REMARK   77  A    between atoms: _192  and  _193
REMARK   78  A    between atoms: _196  and  _198
REMARK   79  A    between atoms: _198  and  _199
REMARK   80  A    between atoms: _198  and  _201
REMARK   81  A    between atoms: _201  and  _202
REMARK   82  A    between atoms: _207  and  _208
REMARK   83  A    between atoms: _210  and  _212
REMARK   84  A    between atoms: _212  and  _213
REMARK   85  A    between atoms: _212  and  _215
REMARK   86  A    between atoms: _215  and  _216
REMARK   87  A    between atoms: _219  and  _221
REMARK   88  A    between atoms: _221  and  _222
REMARK   89  A    between atoms: _221  and  _224
REMARK   90  A    between atoms: _226  and  _228
REMARK   91  A    between atoms: _228  and  _229
REMARK   92  A    between atoms: _228  and  _231
REMARK   93  A    between atoms: _231  and  _232
REMARK   94  A    between atoms: _237  and  _239
REMARK   95  A    between atoms: _239  and  _240
REMARK   96  A    between atoms: _239  and  _242
REMARK   97  A    between atoms: _242  and  _243
REMARK   98  A    between atoms: _243  and  ZN_324
REMARK   99  A    between atoms: _244  and  _246
REMARK  100  A    between atoms: _246  and  _247
REMARK  101  A    between atoms: _246  and  _249
REMARK  102  A    between atoms: _249  and  _250
REMARK  103  A    between atoms: _255  and  _257
REMARK  104  A    between atoms: _257  and  _258
REMARK  105  A    between atoms: _257  and  _260
REMARK  106  A    between atoms: _260  and  _261
REMARK  107  A    between atoms: _261  and  _262
REMARK  108  A    between atoms: _267  and  _269
REMARK  109  A    between atoms: _269  and  _270
REMARK  110  A    between atoms: _269  and  _272
REMARK  111  A    between atoms: _272  and  _273
REMARK  112  A    between atoms: _276  and  _278
REMARK  113  A    between atoms: _278  and  _279
REMARK  114  A    between atoms: _278  and  _281
REMARK  115  A    between atoms: _281  and  _282
REMARK  116  A    between atoms: _288  and  _290
REMARK  117  A    between atoms: _290  and  _291
REMARK  118  A    between atoms: _291  and  _292
REMARK  119  A    between atoms: _291  and  _293
REMARK  120  A    between atoms: _293  and  _295
REMARK  121  A    between atoms: _302  and  _303
REMARK  122  A    between atoms: _307  and  _309
REMARK  123  A    between atoms: _309  and  _310
REMARK  124  A    between atoms: _312  and  _314
REMARK  125  A    between atoms: _314  and  _315
REMARK  126  A    between atoms: _314  and  _317
REMARK  127  A    between atoms: _317  and  _318
REMARK                            x       y       z     vdW  Elec       q    Type
REMARK                         _______ _______ _______ _____ _____    ______ ____
ROOT
ATOM      1  CA  GLY A   1      85.604   6.358 -42.833  0.00  0.00    +0.156 C 
ENDROOT
BRANCH   1   2
ATOM      2  N   GLY A   1      85.286   6.794 -44.187  0.00  0.00    -0.238 NA
ATOM      3  H   GLY A   1      84.483   6.361 -44.686  0.00  0.00    +0.142 HD
ENDBRANCH   1   2
BRANCH   1   4
ATOM      4  C   GLY A   1      86.296   5.001 -42.733  0.00  0.00    +0.226 C 
ATOM      5  O   GLY A   1      86.000   4.074 -43.481  0.00  0.00    -0.287 OA
ENDBRANCH   1   4
TORSDOF 2
REMARK  Name = ../refined-set-2016/4m3p/4m3p_pocket.pdb
REMARK  127 active torsions:
REMARK  status: ('A' for Active; 'I' for Inactive)
REMARK    1  A    between atoms: _1  and  _3
REMARK    2  A    between atoms: _3  and  _4
REMARK    3  A    between atoms: _3  and  _6
REMARK    4  A    between atoms: _6  and  _7
REMARK    5  A    between atoms: _10  and  _12
REMARK    6  A    between atoms: _12  and  _13
REMARK    7  A    between atoms: _15  and  _17
REMARK    8  A    between atoms: _17  and  _18
REMARK    9  A    between atoms: _20  and  _22
REMARK   10  A    between atoms: _22  and  _23
REMARK   11  A    between atoms: _22  and  _25
REMARK   12  A    between atoms: _25  and  _26
REMARK   13  A    between atoms: _32  and  _34
REMARK   14  A    between atoms: _34  and  _35
REMARK   15  A    between atoms: _34  and  _37
REMARK   16  A    between atoms: _40  and  _42
REMARK   17  A    between atoms: _42  and  _43
REMARK   18  A    between atoms: _42  and  _45
REMARK   19  A    between atoms: _45  and  _46
REMARK   20  A    between atoms: _52  and  _54
REMARK   21  A    between atoms: _54  and  _55
REMARK   22  A    between atoms: _58  and  _60
REMARK   23  A    between atoms: _60  and  _61
REMARK   24  A    between atoms: _60  and  _63
REMARK   25  A    between atoms: _63  and  _64
REMARK   26  A    between atoms: _67  and  _69
REMARK   27  A    between atoms: _69  and  _70
REMARK   28  A    between atoms: _69  and  _72
REMARK   29  A    between atoms: _72  and  _73
REMARK   30  A    between atoms: _73  and  _74
REMARK   31  A    between atoms: _77  and  _79
REMARK   32  A    between atoms: _79  and  _80
REMARK   33  A    between atoms: _79  and  _82
REMARK   34  A    between atoms: _85  and  _87
REMARK   35  A    between atoms: _87  and  _88
REMARK   36  A    between atoms: _87  and  _90
REMARK   37  A    between atoms: _90  and  _91
REMARK   38  A    between atoms: _101  and  _103
REMARK   39  A    between atoms: _103  and  _104
REMARK   40  A    between atoms: _103  and  _106
REMARK   41  A    between atoms: _106  and  _107
REMARK   42  A    between atoms: _110  and  _112
REMARK   43  A    between atoms: _112  and  _113
REMARK   44  A    between atoms: _112  and  _115
REMARK   45  A    between atoms: _115  and  _116
REMARK   46  A    between atoms: _122  and  _124
REMARK   47  A    between atoms: _124  and  _125
REMARK   48  A    between atoms: _124  and  _127
REMARK   49  A    between atoms: _127  and  _128
REMARK   50  A    between atoms: _128  and  _129
REMARK   51  A    between atoms: _134  and  _136
REMARK   52  A    between atoms: _136  and  _137
REMARK   53  A    between atoms: _136  and  _139
REMARK   54  A    between atoms: _139  and  _140
REMARK   55  A    between atoms: _143  and  _145
REMARK   56  A    between atoms: _145  and  _146
REMARK   57  A    between atoms: _145  and  _148
REMARK   58  A    between atoms: _148  and  _149
REMARK   59  A    between atoms: _155  and  _157
REMARK   60  A    between atoms: _157  and  _158
REMARK   61  A    between atoms: _157  and  _160
REMARK   62  A    between atoms: _160  and  _161
REMARK   63  A    between atoms: _164  and  _166
REMARK   64  A    between atoms: _166  and  _167
REMARK   65  A    between atoms: _169  and  _171
REMARK   66  A    between atoms: _171  and  _172
REMARK   67  A    between atoms: _171  and  _174
REMARK   68  A    between atoms: _174  and  _175
REMARK   69  A    between atoms: _177  and  _179
REMARK   70  A    between atoms: _179  and  _180
REMARK   71  A    between atoms: _179  and  _182
REMARK   72  A    between atoms: _182  and  _183
REMARK   73  A    between atoms: _186  and  _188
REMARK   74  A    between atoms: _188  and  _189
REMARK   75  A    between atoms: _188  and  _191
REMARK   76  A    between atoms: _191  and  _192
REMARK   77  A    between atoms: _192  and  _193
REMARK   78  A    between atoms: _196  and  _198
REMARK   79  A    between atoms: _198  and  _199
REMARK   80  A    between atoms: _198  and  _201
REMARK   81  A    between atoms: _201  and  _202
REMARK   82  A    between atoms: _207  and  _208
REMARK   83  A    between atoms: _210  and  _212
REMARK   84  A    between atoms: _212  and  _213
REMARK   85  A    between atoms: _212  and  _215
REMARK   86  A    between atoms: _215  and  _216
REMARK   87  A    between atoms: _219  and  _221
REMARK   88  A    between atoms: _221  and  _222
REMARK   89  A    between atoms: _221  and  _224
REMARK   90  A    between atoms: _226  and  _228
REMARK   91  A    between atoms: _228  and  _229
REMARK   92  A    between atoms: _228  and  _231
REMARK   93  A    between atoms: _231  and  _232
REMARK   94  A    between atoms: _237  and  _239
REMARK   95  A    between atoms: _239  and  _240
REMARK   96  A    between atoms: _239  and  _242
REMARK   97  A    between atoms: _242  and  _243
REMARK   98  A    between atoms: _243  and  ZN_324
REMARK   99  A    between atoms: _244  and  _246
REMARK  100  A    between atoms: _246  and  _247
REMARK  101  A    between atoms: _246  and  _249
REMARK  102  A    between atoms: _249  and  _250
REMARK  103  A    between atoms: _255  and  _257
REMARK  104  A    between atoms: _257  and  _258
REMARK  105  A    between atoms: _257  and  _260
REMARK  106  A    between atoms: _260  and  _261
REMARK  107  A    between atoms: _261  and  _262
REMARK  108  A    between atoms: _267  and  _269
REMARK  109  A    between atoms: _269  and  _270
REMARK  110  A    between atoms: _269  and  _272
REMARK  111  A    between atoms: _272  and  _273
REMARK  112  A    between atoms: _276  and  _278
REMARK  113  A    between atoms: _278  and  _279
REMARK  114  A    between atoms: _278  and  _281
REMARK  115  A    between atoms: _281  and  _282
REMARK  116  A    between atoms: _288  and  _290
REMARK  117  A    between atoms: _290  and  _291
REMARK  118  A    between atoms: _291  and  _292
REMARK  119  A    between atoms: _291  and  _293
REMARK  120  A    between atoms: _293  and  _295
REMARK  121  A    between atoms: _302  and  _303
REMARK  122  A    between atoms: _307  and  _309
REMARK  123  A    between atoms: _309  and  _310
REMARK  124  A    between atoms: _312  and  _314
REMARK  125  A    between atoms: _314  and  _315
REMARK  126  A    between atoms: _314  and  _317
REMARK  127  A    between atoms: _317  and  _318
REMARK                            x       y       z     vdW  Elec       q    Type
REMARK                         _______ _______ _______ _____ _____    ______ ____
ROOT
ATOM      1  CA  SER A   1      87.342   2.153 -37.902  0.00  0.00    +0.163 C 
ENDROOT
BRANCH   1   2
ATOM      2  N   SER A   1      87.438   2.323 -39.351  0.00  0.00    -0.237 NA
ATOM      3  H   SER A   1      87.288   1.507 -39.978  0.00  0.00    +0.142 HD
ENDBRANCH   1   2
BRANCH   1   4
ATOM      4  C   SER A   1      88.241   1.022 -37.434  0.00  0.00    +0.227 C 
ATOM      5  O   SER A   1      88.904   0.378 -38.241  0.00  0.00    -0.287 OA
ENDBRANCH   1   4
BRANCH   1   6
ATOM      6  CB  SER A   1      85.883   1.957 -37.474  0.00  0.00    +0.162 C 
BRANCH   6   7
ATOM      7  OG  SER A   1      85.266   0.967 -38.261  0.00  0.00    -0.380 OA
ATOM      8  H   SER A   1      84.326   0.854 -37.971  0.00  0.00    +0.211 HD
ENDBRANCH   6   7
ENDBRANCH   1   6
TORSDOF 4
REMARK  Name = ../refined-set-2016/4m3p/4m3p_pocket.pdb
REMARK  127 active torsions:
REMARK  status: ('A' for Active; 'I' for Inactive)
REMARK    1  A    between atoms: _1  and  _3
REMARK    2  A    between atoms: _3  and  _4
REMARK    3  A    between atoms: _3  and  _6
REMARK    4  A    between atoms: _6  and  _7
REMARK    5  A    between atoms: _10  and  _12
REMARK    6  A    between atoms: _12  and  _13
REMARK    7  A    between atoms: _15  and  _17
REMARK    8  A    between atoms: _17  and  _18
REMARK    9  A    between atoms: _20  and  _22
REMARK   10  A    between atoms: _22  and  _23
REMARK   11  A    between atoms: _22  and  _25
REMARK   12  A    between atoms: _25  and  _26
REMARK   13  A    between atoms: _32  and  _34
REMARK   14  A    between atoms: _34  and  _35
REMARK   15  A    between atoms: _34  and  _37
REMARK   16  A    between atoms: _40  and  _42
REMARK   17  A    between atoms: _42  and  _43
REMARK   18  A    between atoms: _42  and  _45
REMARK   19  A    between atoms: _45  and  _46
REMARK   20  A    between atoms: _52  and  _54
REMARK   21  A    between atoms: _54  and  _55
REMARK   22  A    between atoms: _58  and  _60
REMARK   23  A    between atoms: _60  and  _61
REMARK   24  A    between atoms: _60  and  _63
REMARK   25  A    between atoms: _63  and  _64
REMARK   26  A    between atoms: _67  and  _69
REMARK   27  A    between atoms: _69  and  _70
REMARK   28  A    between atoms: _69  and  _72
REMARK   29  A    between atoms: _72  and  _73
REMARK   30  A    between atoms: _73  and  _74
REMARK   31  A    between atoms: _77  and  _79
REMARK   32  A    between atoms: _79  and  _80
REMARK   33  A    between atoms: _79  and  _82
REMARK   34  A    between atoms: _85  and  _87
REMARK   35  A    between atoms: _87  and  _88
REMARK   36  A    between atoms: _87  and  _90
REMARK   37  A    between atoms: _90  and  _91
REMARK   38  A    between atoms: _101  and  _103
REMARK   39  A    between atoms: _103  and  _104
REMARK   40  A    between atoms: _103  and  _106
REMARK   41  A    between atoms: _106  and  _107
REMARK   42  A    between atoms: _110  and  _112
REMARK   43  A    between atoms: _112  and  _113
REMARK   44  A    between atoms: _112  and  _115
REMARK   45  A    between atoms: _115  and  _116
REMARK   46  A    between atoms: _122  and  _124
REMARK   47  A    between atoms: _124  and  _125
REMARK   48  A    between atoms: _124  and  _127
REMARK   49  A    between atoms: _127  and  _128
REMARK   50  A    between atoms: _128  and  _129
REMARK   51  A    between atoms: _134  and  _136
REMARK   52  A    between atoms: _136  and  _137
REMARK   53  A    between atoms: _136  and  _139
REMARK   54  A    between atoms: _139  and  _140
REMARK   55  A    between atoms: _143  and  _145
REMARK   56  A    between atoms: _145  and  _146
REMARK   57  A    between atoms: _145  and  _148
REMARK   58  A    between atoms: _148  and  _149
REMARK   59  A    between atoms: _155  and  _157
REMARK   60  A    between atoms: _157  and  _158
REMARK   61  A    between atoms: _157  and  _160
REMARK   62  A    between atoms: _160  and  _161
REMARK   63  A    between atoms: _164  and  _166
REMARK   64  A    between atoms: _166  and  _167
REMARK   65  A    between atoms: _169  and  _171
REMARK   66  A    between atoms: _171  and  _172
REMARK   67  A    between atoms: _171  and  _174
REMARK   68  A    between atoms: _174  and  _175
REMARK   69  A    between atoms: _177  and  _179
REMARK   70  A    between atoms: _179  and  _180
REMARK   71  A    between atoms: _179  and  _182
REMARK   72  A    between atoms: _182  and  _183
REMARK   73  A    between atoms: _186  and  _188
REMARK   74  A    between atoms: _188  and  _189
REMARK   75  A    between atoms: _188  and  _191
REMARK   76  A    between atoms: _191  and  _192
REMARK   77  A    between atoms: _192  and  _193
REMARK   78  A    between atoms: _196  and  _198
REMARK   79  A    between atoms: _198  and  _199
REMARK   80  A    between atoms: _198  and  _201
REMARK   81  A    between atoms: _201  and  _202
REMARK   82  A    between atoms: _207  and  _208
REMARK   83  A    between atoms: _210  and  _212
REMARK   84  A    between atoms: _212  and  _213
REMARK   85  A    between atoms: _212  and  _215
REMARK   86  A    between atoms: _215  and  _216
REMARK   87  A    between atoms: _219  and  _221
REMARK   88  A    between atoms: _221  and  _222
REMARK   89  A    between atoms: _221  and  _224
REMARK   90  A    between atoms: _226  and  _228
REMARK   91  A    between atoms: _228  and  _229
REMARK   92  A    between atoms: _228  and  _231
REMARK   93  A    between atoms: _231  and  _232
REMARK   94  A    between atoms: _237  and  _239
REMARK   95  A    between atoms: _239  and  _240
REMARK   96  A    between atoms: _239  and  _242
REMARK   97  A    between atoms: _242  and  _243
REMARK   98  A    between atoms: _243  and  ZN_324
REMARK   99  A    between atoms: _244  and  _246
REMARK  100  A    between atoms: _246  and  _247
REMARK  101  A    between atoms: _246  and  _249
REMARK  102  A    between atoms: _249  and  _250
REMARK  103  A    between atoms: _255  and  _257
REMARK  104  A    between atoms: _257  and  _258
REMARK  105  A    between atoms: _257  and  _260
REMARK  106  A    between atoms: _260  and  _261
REMARK  107  A    between atoms: _261  and  _262
REMARK  108  A    between atoms: _267  and  _269
REMARK  109  A    between atoms: _269  and  _270
REMARK  110  A    between atoms: _269  and  _272
REMARK  111  A    between atoms: _272  and  _273
REMARK  112  A    between atoms: _276  and  _278
REMARK  113  A    between atoms: _278  and  _279
REMARK  114  A    between atoms: _278  and  _281
REMARK  115  A    between atoms: _281  and  _282
REMARK  116  A    between atoms: _288  and  _290
REMARK  117  A    between atoms: _290  and  _291
REMARK  118  A    between atoms: _291  and  _292
REMARK  119  A    between atoms: _291  and  _293
REMARK  120  A    between atoms: _293  and  _295
REMARK  121  A    between atoms: _302  and  _303
REMARK  122  A    between atoms: _307  and  _309
REMARK  123  A    between atoms: _309  and  _310
REMARK  124  A    between atoms: _312  and  _314
REMARK  125  A    between atoms: _314  and  _315
REMARK  126  A    between atoms: _314  and  _317
REMARK  127  A    between atoms: _317  and  _318
REMARK                            x       y       z     vdW  Elec       q    Type
REMARK                         _______ _______ _______ _____ _____    ______ ____
ROOT
ATOM      1  CA  ILE A   1      88.103   9.907 -40.969  0.00  0.00    +0.133 C 
ENDROOT
BRANCH   1   2
ATOM      2  N   ILE A   1      88.325   9.876 -42.410  0.00  0.00    -0.239 NA
ATOM      3  H   ILE A   1      87.880   9.127 -42.978  0.00  0.00    +0.142 HD
ENDBRANCH   1   2
BRANCH   1   4
ATOM      4  C   ILE A   1      88.520   8.566 -40.397  0.00  0.00    +0.224 C 
ATOM      5  O   ILE A   1      88.003   7.539 -40.802  0.00  0.00    -0.287 OA
ENDBRANCH   1   4
BRANCH   1   6
ATOM      6  CB  ILE A   1      86.618  10.159 -40.606  0.00  0.00    +0.023 C 
ATOM      7  CG2 ILE A   1      86.431  10.056 -39.093  0.00  0.00    +0.002 C 
BRANCH   6   8
ATOM      8  CG1 ILE A   1      86.155  11.552 -41.048  0.00  0.00    +0.002 C 
ATOM      9  CD1 ILE A   1      84.643  11.787 -40.900  0.00  0.00    +0.000 C 
ENDBRANCH   6   8
ENDBRANCH   1   6
TORSDOF 4
REMARK  Name = ../refined-set-2016/4m3p/4m3p_pocket.pdb
REMARK  127 active torsions:
REMARK  status: ('A' for Active; 'I' for Inactive)
REMARK    1  A    between atoms: _1  and  _3
REMARK    2  A    between atoms: _3  and  _4
REMARK    3  A    between atoms: _3  and  _6
REMARK    4  A    between atoms: _6  and  _7
REMARK    5  A    between atoms: _10  and  _12
REMARK    6  A    between atoms: _12  and  _13
REMARK    7  A    between atoms: _15  and  _17
REMARK    8  A    between atoms: _17  and  _18
REMARK    9  A    between atoms: _20  and  _22
REMARK   10  A    between atoms: _22  and  _23
REMARK   11  A    between atoms: _22  and  _25
REMARK   12  A    between atoms: _25  and  _26
REMARK   13  A    between atoms: _32  and  _34
REMARK   14  A    between atoms: _34  and  _35
REMARK   15  A    between atoms: _34  and  _37
REMARK   16  A    between atoms: _40  and  _42
REMARK   17  A    between atoms: _42  and  _43
REMARK   18  A    between atoms: _42  and  _45
REMARK   19  A    between atoms: _45  and  _46
REMARK   20  A    between atoms: _52  and  _54
REMARK   21  A    between atoms: _54  and  _55
REMARK   22  A    between atoms: _58  and  _60
REMARK   23  A    between atoms: _60  and  _61
REMARK   24  A    between atoms: _60  and  _63
REMARK   25  A    between atoms: _63  and  _64
REMARK   26  A    between atoms: _67  and  _69
REMARK   27  A    between atoms: _69  and  _70
REMARK   28  A    between atoms: _69  and  _72
REMARK   29  A    between atoms: _72  and  _73
REMARK   30  A    between atoms: _73  and  _74
REMARK   31  A    between atoms: _77  and  _79
REMARK   32  A    between atoms: _79  and  _80
REMARK   33  A    between atoms: _79  and  _82
REMARK   34  A    between atoms: _85  and  _87
REMARK   35  A    between atoms: _87  and  _88
REMARK   36  A    between atoms: _87  and  _90
REMARK   37  A    between atoms: _90  and  _91
REMARK   38  A    between atoms: _101  and  _103
REMARK   39  A    between atoms: _103  and  _104
REMARK   40  A    between atoms: _103  and  _106
REMARK   41  A    between atoms: _106  and  _107
REMARK   42  A    between atoms: _110  and  _112
REMARK   43  A    between atoms: _112  and  _113
REMARK   44  A    between atoms: _112  and  _115
REMARK   45  A    between atoms: _115  and  _116
REMARK   46  A    between atoms: _122  and  _124
REMARK   47  A    between atoms: _124  and  _125
REMARK   48  A    between atoms: _124  and  _127
REMARK   49  A    between atoms: _127  and  _128
REMARK   50  A    between atoms: _128  and  _129
REMARK   51  A    between atoms: _134  and  _136
REMARK   52  A    between atoms: _136  and  _137
REMARK   53  A    between atoms: _136  and  _139
REMARK   54  A    between atoms: _139  and  _140
REMARK   55  A    between atoms: _143  and  _145
REMARK   56  A    between atoms: _145  and  _146
REMARK   57  A    between atoms: _145  and  _148
REMARK   58  A    between atoms: _148  and  _149
REMARK   59  A    between atoms: _155  and  _157
REMARK   60  A    between atoms: _157  and  _158
REMARK   61  A    between atoms: _157  and  _160
REMARK   62  A    between atoms: _160  and  _161
REMARK   63  A    between atoms: _164  and  _166
REMARK   64  A    between atoms: _166  and  _167
REMARK   65  A    between atoms: _169  and  _171
REMARK   66  A    between atoms: _171  and  _172
REMARK   67  A    between atoms: _171  and  _174
REMARK   68  A    between atoms: _174  and  _175
REMARK   69  A    between atoms: _177  and  _179
REMARK   70  A    between atoms: _179  and  _180
REMARK   71  A    between atoms: _179  and  _182
REMARK   72  A    between atoms: _182  and  _183
REMARK   73  A    between atoms: _186  and  _188
REMARK   74  A    between atoms: _188  and  _189
REMARK   75  A    between atoms: _188  and  _191
REMARK   76  A    between atoms: _191  and  _192
REMARK   77  A    between atoms: _192  and  _193
REMARK   78  A    between atoms: _196  and  _198
REMARK   79  A    between atoms: _198  and  _199
REMARK   80  A    between atoms: _198  and  _201
REMARK   81  A    between atoms: _201  and  _202
REMARK   82  A    between atoms: _207  and  _208
REMARK   83  A    between atoms: _210  and  _212
REMARK   84  A    between atoms: _212  and  _213
REMARK   85  A    between atoms: _212  and  _215
REMARK   86  A    between atoms: _215  and  _216
REMARK   87  A    between atoms: _219  and  _221
REMARK   88  A    between atoms: _221  and  _222
REMARK   89  A    between atoms: _221  and  _224
REMARK   90  A    between atoms: _226  and  _228
REMARK   91  A    between atoms: _228  and  _229
REMARK   92  A    between atoms: _228  and  _231
REMARK   93  A    between atoms: _231  and  _232
REMARK   94  A    between atoms: _237  and  _239
REMARK   95  A    between atoms: _239  and  _240
REMARK   96  A    between atoms: _239  and  _242
REMARK   97  A    between atoms: _242  and  _243
REMARK   98  A    between atoms: _243  and  ZN_324
REMARK   99  A    between atoms: _244  and  _246
REMARK  100  A    between atoms: _246  and  _247
REMARK  101  A    between atoms: _246  and  _249
REMARK  102  A    between atoms: _249  and  _250
REMARK  103  A    between atoms: _255  and  _257
REMARK  104  A    between atoms: _257  and  _258
REMARK  105  A    between atoms: _257  and  _260
REMARK  106  A    between atoms: _260  and  _261
REMARK  107  A    between atoms: _261  and  _262
REMARK  108  A    between atoms: _267  and  _269
REMARK  109  A    between atoms: _269  and  _270
REMARK  110  A    between atoms: _269  and  _272
REMARK  111  A    between atoms: _272  and  _273
REMARK  112  A    between atoms: _276  and  _278
REMARK  113  A    between atoms: _278  and  _279
REMARK  114  A    between atoms: _278  and  _281
REMARK  115  A    between atoms: _281  and  _282
REMARK  116  A    between atoms: _288  and  _290
REMARK  117  A    between atoms: _290  and  _291
REMARK  118  A    between atoms: _291  and  _292
REMARK  119  A    between atoms: _291  and  _293
REMARK  120  A    between atoms: _293  and  _295
REMARK  121  A    between atoms: _302  and  _303
REMARK  122  A    between atoms: _307  and  _309
REMARK  123  A    between atoms: _309  and  _310
REMARK  124  A    between atoms: _312  and  _314
REMARK  125  A    between atoms: _314  and  _315
REMARK  126  A    between atoms: _314  and  _317
REMARK  127  A    between atoms: _317  and  _318
REMARK                            x       y       z     vdW  Elec       q    Type
REMARK                         _______ _______ _______ _____ _____    ______ ____
ROOT
ATOM      1  C   GLU A   1      86.646   5.524 -35.353  0.00  0.00    +0.238 C 
ATOM      2  N   TYR A   2      86.072   5.639 -34.162  0.00  0.00    -0.298 N 
ATOM      3  H   TYR A   2      85.817   6.582 -33.805  0.00  0.00    +0.150 HD
ATOM      4  O   GLU A   1      86.937   4.431 -35.847  0.00  0.00    -0.274 OA
ENDROOT
BRANCH   1   5
ATOM      5  CA  GLU A   1      86.926   6.844 -36.090  0.00  0.00    +0.145 C 
BRANCH   5   6
ATOM      6  N   GLU A   1      87.840   6.670 -37.230  0.00  0.00    -0.238 NA
ATOM      7  H   GLU A   1      87.666   5.906 -37.913  0.00  0.00    +0.142 HD
ENDBRANCH   5   6
BRANCH   5   8
ATOM      8  CB  GLU A   1      85.610   7.516 -36.529  0.00  0.00    +0.038 C 
BRANCH   8   9
ATOM      9  CG  GLU A   1      84.817   6.764 -37.596  0.00  0.00    +0.116 C 
BRANCH   9  10
ATOM     10  CD  GLU A   1      83.373   7.274 -37.791  0.00  0.00    +0.365 C 
ATOM     11  OE2 GLU A   1      83.051   8.416 -37.438  0.00  0.00    -0.246 OA
ATOM     12  OE1 GLU A   1      82.533   6.514 -38.310  0.00  0.00    -0.246 OA
ENDBRANCH   9  10
ENDBRANCH   8   9
ENDBRANCH   5   8
ENDBRANCH   1   5
BRANCH   2  13
ATOM     13  CA  TYR A   2      85.797   4.477 -33.356  0.00  0.00    +0.141 C 
BRANCH  13  14
ATOM     14  C   TYR A   2      87.075   3.630 -33.109  0.00  0.00    +0.227 C 
ATOM     15  O   TYR A   2      87.133   2.449 -33.445  0.00  0.00    -0.286 OA
ENDBRANCH  13  14
BRANCH  13  16
ATOM     16  CB  TYR A   2      84.677   3.658 -33.994  0.00  0.00    +0.054 C 
BRANCH  16  17
ATOM     17  CG  TYR A   2      83.969   2.788 -32.988  0.00  0.00    -0.020 A 
ATOM     18  CD2 TYR A   2      82.998   3.329 -32.164  0.00  0.00    -0.001 A 
ATOM     19  CE2 TYR A   2      82.354   2.559 -31.212  0.00  0.00    +0.036 A 
ATOM     20  CZ  TYR A   2      82.697   1.234 -31.065  0.00  0.00    +0.134 A 
ATOM     21  CE1 TYR A   2      83.678   0.665 -31.868  0.00  0.00    +0.036 A 
ATOM     22  CD1 TYR A   2      84.315   1.451 -32.813  0.00  0.00    -0.001 A 
BRANCH  20  23
ATOM     23  OH  TYR A   2      82.040   0.510 -30.113  0.00  0.00    -0.506 OA
ATOM     24  HH  TYR A   2      81.385   1.091 -29.652  0.00  0.00    +0.292 HD
ENDBRANCH  20  23
ENDBRANCH  16  17
ENDBRANCH  13  16
ENDBRANCH   2  13
TORSDOF 10
REMARK  Name = ../refined-set-2016/4m3p/4m3p_pocket.pdb
REMARK  127 active torsions:
REMARK  status: ('A' for Active; 'I' for Inactive)
REMARK    1  A    between atoms: _1  and  _3
REMARK    2  A    between atoms: _3  and  _4
REMARK    3  A    between atoms: _3  and  _6
REMARK    4  A    between atoms: _6  and  _7
REMARK    5  A    between atoms: _10  and  _12
REMARK    6  A    between atoms: _12  and  _13
REMARK    7  A    between atoms: _15  and  _17
REMARK    8  A    between atoms: _17  and  _18
REMARK    9  A    between atoms: _20  and  _22
REMARK   10  A    between atoms: _22  and  _23
REMARK   11  A    between atoms: _22  and  _25
REMARK   12  A    between atoms: _25  and  _26
REMARK   13  A    between atoms: _32  and  _34
REMARK   14  A    between atoms: _34  and  _35
REMARK   15  A    between atoms: _34  and  _37
REMARK   16  A    between atoms: _40  and  _42
REMARK   17  A    between atoms: _42  and  _43
REMARK   18  A    between atoms: _42  and  _45
REMARK   19  A    between atoms: _45  and  _46
REMARK   20  A    between atoms: _52  and  _54
REMARK   21  A    between atoms: _54  and  _55
REMARK   22  A    between atoms: _58  and  _60
REMARK   23  A    between atoms: _60  and  _61
REMARK   24  A    between atoms: _60  and  _63
REMARK   25  A    between atoms: _63  and  _64
REMARK   26  A    between atoms: _67  and  _69
REMARK   27  A    between atoms: _69  and  _70
REMARK   28  A    between atoms: _69  and  _72
REMARK   29  A    between atoms: _72  and  _73
REMARK   30  A    between atoms: _73  and  _74
REMARK   31  A    between atoms: _77  and  _79
REMARK   32  A    between atoms: _79  and  _80
REMARK   33  A    between atoms: _79  and  _82
REMARK   34  A    between atoms: _85  and  _87
REMARK   35  A    between atoms: _87  and  _88
REMARK   36  A    between atoms: _87  and  _90
REMARK   37  A    between atoms: _90  and  _91
REMARK   38  A    between atoms: _101  and  _103
REMARK   39  A    between atoms: _103  and  _104
REMARK   40  A    between atoms: _103  and  _106
REMARK   41  A    between atoms: _106  and  _107
REMARK   42  A    between atoms: _110  and  _112
REMARK   43  A    between atoms: _112  and  _113
REMARK   44  A    between atoms: _112  and  _115
REMARK   45  A    between atoms: _115  and  _116
REMARK   46  A    between atoms: _122  and  _124
REMARK   47  A    between atoms: _124  and  _125
REMARK   48  A    between atoms: _124  and  _127
REMARK   49  A    between atoms: _127  and  _128
REMARK   50  A    between atoms: _128  and  _129
REMARK   51  A    between atoms: _134  and  _136
REMARK   52  A    between atoms: _136  and  _137
REMARK   53  A    between atoms: _136  and  _139
REMARK   54  A    between atoms: _139  and  _140
REMARK   55  A    between atoms: _143  and  _145
REMARK   56  A    between atoms: _145  and  _146
REMARK   57  A    between atoms: _145  and  _148
REMARK   58  A    between atoms: _148  and  _149
REMARK   59  A    between atoms: _155  and  _157
REMARK   60  A    between atoms: _157  and  _158
REMARK   61  A    between atoms: _157  and  _160
REMARK   62  A    between atoms: _160  and  _161
REMARK   63  A    between atoms: _164  and  _166
REMARK   64  A    between atoms: _166  and  _167
REMARK   65  A    between atoms: _169  and  _171
REMARK   66  A    between atoms: _171  and  _172
REMARK   67  A    between atoms: _171  and  _174
REMARK   68  A    between atoms: _174  and  _175
REMARK   69  A    between atoms: _177  and  _179
REMARK   70  A    between atoms: _179  and  _180
REMARK   71  A    between atoms: _179  and  _182
REMARK   72  A    between atoms: _182  and  _183
REMARK   73  A    between atoms: _186  and  _188
REMARK   74  A    between atoms: _188  and  _189
REMARK   75  A    between atoms: _188  and  _191
REMARK   76  A    between atoms: _191  and  _192
REMARK   77  A    between atoms: _192  and  _193
REMARK   78  A    between atoms: _196  and  _198
REMARK   79  A    between atoms: _198  and  _199
REMARK   80  A    between atoms: _198  and  _201
REMARK   81  A    between atoms: _201  and  _202
REMARK   82  A    between atoms: _207  and  _208
REMARK   83  A    between atoms: _210  and  _212
REMARK   84  A    between atoms: _212  and  _213
REMARK   85  A    between atoms: _212  and  _215
REMARK   86  A    between atoms: _215  and  _216
REMARK   87  A    between atoms: _219  and  _221
REMARK   88  A    between atoms: _221  and  _222
REMARK   89  A    between atoms: _221  and  _224
REMARK   90  A    between atoms: _226  and  _228
REMARK   91  A    between atoms: _228  and  _229
REMARK   92  A    between atoms: _228  and  _231
REMARK   93  A    between atoms: _231  and  _232
REMARK   94  A    between atoms: _237  and  _239
REMARK   95  A    between atoms: _239  and  _240
REMARK   96  A    between atoms: _239  and  _242
REMARK   97  A    between atoms: _242  and  _243
REMARK   98  A    between atoms: _243  and  ZN_324
REMARK   99  A    between atoms: _244  and  _246
REMARK  100  A    between atoms: _246  and  _247
REMARK  101  A    between atoms: _246  and  _249
REMARK  102  A    between atoms: _249  and  _250
REMARK  103  A    between atoms: _255  and  _257
REMARK  104  A    between atoms: _257  and  _258
REMARK  105  A    between atoms: _257  and  _260
REMARK  106  A    between atoms: _260  and  _261
REMARK  107  A    between atoms: _261  and  _262
REMARK  108  A    between atoms: _267  and  _269
REMARK  109  A    between atoms: _269  and  _270
REMARK  110  A    between atoms: _269  and  _272
REMARK  111  A    between atoms: _272  and  _273
REMARK  112  A    between atoms: _276  and  _278
REMARK  113  A    between atoms: _278  and  _279
REMARK  114  A    between atoms: _278  and  _281
REMARK  115  A    between atoms: _281  and  _282
REMARK  116  A    between atoms: _288  and  _290
REMARK  117  A    between atoms: _290  and  _291
REMARK  118  A    between atoms: _291  and  _292
REMARK  119  A    between atoms: _291  and  _293
REMARK  120  A    between atoms: _293  and  _295
REMARK  121  A    between atoms: _302  and  _303
REMARK  122  A    between atoms: _307  and  _309
REMARK  123  A    between atoms: _309  and  _310
REMARK  124  A    between atoms: _312  and  _314
REMARK  125  A    between atoms: _314  and  _315
REMARK  126  A    between atoms: _314  and  _317
REMARK  127  A    between atoms: _317  and  _318
REMARK                            x       y       z     vdW  Elec       q    Type
REMARK                         _______ _______ _______ _____ _____    ______ ____
ROOT
ATOM      1  CA  THR A   1      88.451  10.552 -33.348  0.00  0.00    +0.160 C 
ENDROOT
BRANCH   1   2
ATOM      2  N   THR A   1      89.222  10.464 -34.576  0.00  0.00    -0.237 NA
ATOM      3  H   THR A   1      89.003   9.708 -35.256  0.00  0.00    +0.142 HD
ENDBRANCH   1   2
BRANCH   1   4
ATOM      4  C   THR A   1      88.509   9.203 -32.675  0.00  0.00    +0.227 C 
ATOM      5  O   THR A   1      88.543   8.152 -33.323  0.00  0.00    -0.287 OA
ENDBRANCH   1   4
BRANCH   1   6
ATOM      6  CB  THR A   1      86.959  10.922 -33.577  0.00  0.00    +0.134 C 
ATOM      7  CG2 THR A   1      86.815  12.267 -34.227  0.00  0.00    +0.034 C 
BRANCH   6   8
ATOM      8  OG1 THR A   1      86.330   9.922 -34.389  0.00  0.00    -0.383 OA
ATOM      9  HG1 THR A   1      86.384   9.045 -33.932  0.00  0.00    +0.210 HD
ENDBRANCH   6   8
ENDBRANCH   1   6
TORSDOF 4
REMARK  Name = ../refined-set-2016/4m3p/4m3p_pocket.pdb
REMARK  127 active torsions:
REMARK  status: ('A' for Active; 'I' for Inactive)
REMARK    1  A    between atoms: _1  and  _3
REMARK    2  A    between atoms: _3  and  _4
REMARK    3  A    between atoms: _3  and  _6
REMARK    4  A    between atoms: _6  and  _7
REMARK    5  A    between atoms: _10  and  _12
REMARK    6  A    between atoms: _12  and  _13
REMARK    7  A    between atoms: _15  and  _17
REMARK    8  A    between atoms: _17  and  _18
REMARK    9  A    between atoms: _20  and  _22
REMARK   10  A    between atoms: _22  and  _23
REMARK   11  A    between atoms: _22  and  _25
REMARK   12  A    between atoms: _25  and  _26
REMARK   13  A    between atoms: _32  and  _34
REMARK   14  A    between atoms: _34  and  _35
REMARK   15  A    between atoms: _34  and  _37
REMARK   16  A    between atoms: _40  and  _42
REMARK   17  A    between atoms: _42  and  _43
REMARK   18  A    between atoms: _42  and  _45
REMARK   19  A    between atoms: _45  and  _46
REMARK   20  A    between atoms: _52  and  _54
REMARK   21  A    between atoms: _54  and  _55
REMARK   22  A    between atoms: _58  and  _60
REMARK   23  A    between atoms: _60  and  _61
REMARK   24  A    between atoms: _60  and  _63
REMARK   25  A    between atoms: _63  and  _64
REMARK   26  A    between atoms: _67  and  _69
REMARK   27  A    between atoms: _69  and  _70
REMARK   28  A    between atoms: _69  and  _72
REMARK   29  A    between atoms: _72  and  _73
REMARK   30  A    between atoms: _73  and  _74
REMARK   31  A    between atoms: _77  and  _79
REMARK   32  A    between atoms: _79  and  _80
REMARK   33  A    between atoms: _79  and  _82
REMARK   34  A    between atoms: _85  and  _87
REMARK   35  A    between atoms: _87  and  _88
REMARK   36  A    between atoms: _87  and  _90
REMARK   37  A    between atoms: _90  and  _91
REMARK   38  A    between atoms: _101  and  _103
REMARK   39  A    between atoms: _103  and  _104
REMARK   40  A    between atoms: _103  and  _106
REMARK   41  A    between atoms: _106  and  _107
REMARK   42  A    between atoms: _110  and  _112
REMARK   43  A    between atoms: _112  and  _113
REMARK   44  A    between atoms: _112  and  _115
REMARK   45  A    between atoms: _115  and  _116
REMARK   46  A    between atoms: _122  and  _124
REMARK   47  A    between atoms: _124  and  _125
REMARK   48  A    between atoms: _124  and  _127
REMARK   49  A    between atoms: _127  and  _128
REMARK   50  A    between atoms: _128  and  _129
REMARK   51  A    between atoms: _134  and  _136
REMARK   52  A    between atoms: _136  and  _137
REMARK   53  A    between atoms: _136  and  _139
REMARK   54  A    between atoms: _139  and  _140
REMARK   55  A    between atoms: _143  and  _145
REMARK   56  A    between atoms: _145  and  _146
REMARK   57  A    between atoms: _145  and  _148
REMARK   58  A    between atoms: _148  and  _149
REMARK   59  A    between atoms: _155  and  _157
REMARK   60  A    between atoms: _157  and  _158
REMARK   61  A    between atoms: _157  and  _160
REMARK   62  A    between atoms: _160  and  _161
REMARK   63  A    between atoms: _164  and  _166
REMARK   64  A    between atoms: _166  and  _167
REMARK   65  A    between atoms: _169  and  _171
REMARK   66  A    between atoms: _171  and  _172
REMARK   67  A    between atoms: _171  and  _174
REMARK   68  A    between atoms: _174  and  _175
REMARK   69  A    between atoms: _177  and  _179
REMARK   70  A    between atoms: _179  and  _180
REMARK   71  A    between atoms: _179  and  _182
REMARK   72  A    between atoms: _182  and  _183
REMARK   73  A    between atoms: _186  and  _188
REMARK   74  A    between atoms: _188  and  _189
REMARK   75  A    between atoms: _188  and  _191
REMARK   76  A    between atoms: _191  and  _192
REMARK   77  A    between atoms: _192  and  _193
REMARK   78  A    between atoms: _196  and  _198
REMARK   79  A    between atoms: _198  and  _199
REMARK   80  A    between atoms: _198  and  _201
REMARK   81  A    between atoms: _201  and  _202
REMARK   82  A    between atoms: _207  and  _208
REMARK   83  A    between atoms: _210  and  _212
REMARK   84  A    between atoms: _212  and  _213
REMARK   85  A    between atoms: _212  and  _215
REMARK   86  A    between atoms: _215  and  _216
REMARK   87  A    between atoms: _219  and  _221
REMARK   88  A    between atoms: _221  and  _222
REMARK   89  A    between atoms: _221  and  _224
REMARK   90  A    between atoms: _226  and  _228
REMARK   91  A    between atoms: _228  and  _229
REMARK   92  A    between atoms: _228  and  _231
REMARK   93  A    between atoms: _231  and  _232
REMARK   94  A    between atoms: _237  and  _239
REMARK   95  A    between atoms: _239  and  _240
REMARK   96  A    between atoms: _239  and  _242
REMARK   97  A    between atoms: _242  and  _243
REMARK   98  A    between atoms: _243  and  ZN_324
REMARK   99  A    between atoms: _244  and  _246
REMARK  100  A    between atoms: _246  and  _247
REMARK  101  A    between atoms: _246  and  _249
REMARK  102  A    between atoms: _249  and  _250
REMARK  103  A    between atoms: _255  and  _257
REMARK  104  A    between atoms: _257  and  _258
REMARK  105  A    between atoms: _257  and  _260
REMARK  106  A    between atoms: _260  and  _261
REMARK  107  A    between atoms: _261  and  _262
REMARK  108  A    between atoms: _267  and  _269
REMARK  109  A    between atoms: _269  and  _270
REMARK  110  A    between atoms: _269  and  _272
REMARK  111  A    between atoms: _272  and  _273
REMARK  112  A    between atoms: _276  and  _278
REMARK  113  A    between atoms: _278  and  _279
REMARK  114  A    between atoms: _278  and  _281
REMARK  115  A    between atoms: _281  and  _282
REMARK  116  A    between atoms: _288  and  _290
REMARK  117  A    between atoms: _290  and  _291
REMARK  118  A    between atoms: _291  and  _292
REMARK  119  A    between atoms: _291  and  _293
REMARK  120  A    between atoms: _293  and  _295
REMARK  121  A    between atoms: _302  and  _303
REMARK  122  A    between atoms: _307  and  _309
REMARK  123  A    between atoms: _309  and  _310
REMARK  124  A    between atoms: _312  and  _314
REMARK  125  A    between atoms: _314  and  _315
REMARK  126  A    between atoms: _314  and  _317
REMARK  127  A    between atoms: _317  and  _318
REMARK                            x       y       z     vdW  Elec       q    Type
REMARK                         _______ _______ _______ _____ _____    ______ ____
ROOT
ATOM      1  CA  CYS A   1      85.854   6.275 -28.625  0.00  0.00    +0.145 C 
ENDROOT
BRANCH   1   2
ATOM      2  N   CYS A   1      86.964   6.583 -29.498  0.00  0.00    -0.238 NA
ATOM      3  H   CYS A   1      87.469   5.807 -29.973  0.00  0.00    +0.142 HD
ENDBRANCH   1   2
BRANCH   1   4
ATOM      4  C   CYS A   1      86.447   5.898 -27.278  0.00  0.00    +0.225 C 
ATOM      5  O   CYS A   1      86.475   4.738 -26.906  0.00  0.00    -0.287 OA
ENDBRANCH   1   4
BRANCH   1   6
ATOM      6  CB  CYS A   1      84.960   5.166 -29.176  0.00  0.00    +0.094 C 
ATOM      7  SG  CYS A   1      85.792   3.626 -29.579  0.00  0.00    -0.080 S 
ENDBRANCH   1   6
TORSDOF 3
REMARK  Name = ../refined-set-2016/4m3p/4m3p_pocket.pdb
REMARK  127 active torsions:
REMARK  status: ('A' for Active; 'I' for Inactive)
REMARK    1  A    between atoms: _1  and  _3
REMARK    2  A    between atoms: _3  and  _4
REMARK    3  A    between atoms: _3  and  _6
REMARK    4  A    between atoms: _6  and  _7
REMARK    5  A    between atoms: _10  and  _12
REMARK    6  A    between atoms: _12  and  _13
REMARK    7  A    between atoms: _15  and  _17
REMARK    8  A    between atoms: _17  and  _18
REMARK    9  A    between atoms: _20  and  _22
REMARK   10  A    between atoms: _22  and  _23
REMARK   11  A    between atoms: _22  and  _25
REMARK   12  A    between atoms: _25  and  _26
REMARK   13  A    between atoms: _32  and  _34
REMARK   14  A    between atoms: _34  and  _35
REMARK   15  A    between atoms: _34  and  _37
REMARK   16  A    between atoms: _40  and  _42
REMARK   17  A    between atoms: _42  and  _43
REMARK   18  A    between atoms: _42  and  _45
REMARK   19  A    between atoms: _45  and  _46
REMARK   20  A    between atoms: _52  and  _54
REMARK   21  A    between atoms: _54  and  _55
REMARK   22  A    between atoms: _58  and  _60
REMARK   23  A    between atoms: _60  and  _61
REMARK   24  A    between atoms: _60  and  _63
REMARK   25  A    between atoms: _63  and  _64
REMARK   26  A    between atoms: _67  and  _69
REMARK   27  A    between atoms: _69  and  _70
REMARK   28  A    between atoms: _69  and  _72
REMARK   29  A    between atoms: _72  and  _73
REMARK   30  A    between atoms: _73  and  _74
REMARK   31  A    between atoms: _77  and  _79
REMARK   32  A    between atoms: _79  and  _80
REMARK   33  A    between atoms: _79  and  _82
REMARK   34  A    between atoms: _85  and  _87
REMARK   35  A    between atoms: _87  and  _88
REMARK   36  A    between atoms: _87  and  _90
REMARK   37  A    between atoms: _90  and  _91
REMARK   38  A    between atoms: _101  and  _103
REMARK   39  A    between atoms: _103  and  _104
REMARK   40  A    between atoms: _103  and  _106
REMARK   41  A    between atoms: _106  and  _107
REMARK   42  A    between atoms: _110  and  _112
REMARK   43  A    between atoms: _112  and  _113
REMARK   44  A    between atoms: _112  and  _115
REMARK   45  A    between atoms: _115  and  _116
REMARK   46  A    between atoms: _122  and  _124
REMARK   47  A    between atoms: _124  and  _125
REMARK   48  A    between atoms: _124  and  _127
REMARK   49  A    between atoms: _127  and  _128
REMARK   50  A    between atoms: _128  and  _129
REMARK   51  A    between atoms: _134  and  _136
REMARK   52  A    between atoms: _136  and  _137
REMARK   53  A    between atoms: _136  and  _139
REMARK   54  A    between atoms: _139  and  _140
REMARK   55  A    between atoms: _143  and  _145
REMARK   56  A    between atoms: _145  and  _146
REMARK   57  A    between atoms: _145  and  _148
REMARK   58  A    between atoms: _148  and  _149
REMARK   59  A    between atoms: _155  and  _157
REMARK   60  A    between atoms: _157  and  _158
REMARK   61  A    between atoms: _157  and  _160
REMARK   62  A    between atoms: _160  and  _161
REMARK   63  A    between atoms: _164  and  _166
REMARK   64  A    between atoms: _166  and  _167
REMARK   65  A    between atoms: _169  and  _171
REMARK   66  A    between atoms: _171  and  _172
REMARK   67  A    between atoms: _171  and  _174
REMARK   68  A    between atoms: _174  and  _175
REMARK   69  A    between atoms: _177  and  _179
REMARK   70  A    between atoms: _179  and  _180
REMARK   71  A    between atoms: _179  and  _182
REMARK   72  A    between atoms: _182  and  _183
REMARK   73  A    between atoms: _186  and  _188
REMARK   74  A    between atoms: _188  and  _189
REMARK   75  A    between atoms: _188  and  _191
REMARK   76  A    between atoms: _191  and  _192
REMARK   77  A    between atoms: _192  and  _193
REMARK   78  A    between atoms: _196  and  _198
REMARK   79  A    between atoms: _198  and  _199
REMARK   80  A    between atoms: _198  and  _201
REMARK   81  A    between atoms: _201  and  _202
REMARK   82  A    between atoms: _207  and  _208
REMARK   83  A    between atoms: _210  and  _212
REMARK   84  A    between atoms: _212  and  _213
REMARK   85  A    between atoms: _212  and  _215
REMARK   86  A    between atoms: _215  and  _216
REMARK   87  A    between atoms: _219  and  _221
REMARK   88  A    between atoms: _221  and  _222
REMARK   89  A    between atoms: _221  and  _224
REMARK   90  A    between atoms: _226  and  _228
REMARK   91  A    between atoms: _228  and  _229
REMARK   92  A    between atoms: _228  and  _231
REMARK   93  A    between atoms: _231  and  _232
REMARK   94  A    between atoms: _237  and  _239
REMARK   95  A    between atoms: _239  and  _240
REMARK   96  A    between atoms: _239  and  _242
REMARK   97  A    between atoms: _242  and  _243
REMARK   98  A    between atoms: _243  and  ZN_324
REMARK   99  A    between atoms: _244  and  _246
REMARK  100  A    between atoms: _246  and  _247
REMARK  101  A    between atoms: _246  and  _249
REMARK  102  A    between atoms: _249  and  _250
REMARK  103  A    between atoms: _255  and  _257
REMARK  104  A    between atoms: _257  and  _258
REMARK  105  A    between atoms: _257  and  _260
REMARK  106  A    between atoms: _260  and  _261
REMARK  107  A    between atoms: _261  and  _262
REMARK  108  A    between atoms: _267  and  _269
REMARK  109  A    between atoms: _269  and  _270
REMARK  110  A    between atoms: _269  and  _272
REMARK  111  A    between atoms: _272  and  _273
REMARK  112  A    between atoms: _276  and  _278
REMARK  113  A    between atoms: _278  and  _279
REMARK  114  A    between atoms: _278  and  _281
REMARK  115  A    between atoms: _281  and  _282
REMARK  116  A    between atoms: _288  and  _290
REMARK  117  A    between atoms: _290  and  _291
REMARK  118  A    between atoms: _291  and  _292
REMARK  119  A    between atoms: _291  and  _293
REMARK  120  A    between atoms: _293  and  _295
REMARK  121  A    between atoms: _302  and  _303
REMARK  122  A    between atoms: _307  and  _309
REMARK  123  A    between atoms: _309  and  _310
REMARK  124  A    between atoms: _312  and  _314
REMARK  125  A    between atoms: _314  and  _315
REMARK  126  A    between atoms: _314  and  _317
REMARK  127  A    between atoms: _317  and  _318
REMARK                            x       y       z     vdW  Elec       q    Type
REMARK                         _______ _______ _______ _____ _____    ______ ____
ROOT
ATOM      1 ZN   UNK A   2      78.617   5.275 -32.527  0.00  0.00    +0.000 Zn
ATOM      2  S   UNK A   2      76.380   4.499 -32.650  0.00  0.00    +0.000 S 
ATOM      3  C   UNK A   2      75.175   5.397 -31.675  0.00  0.00    +0.000 C 
ATOM      4  C   UNK A   2      74.792   6.686 -32.375  0.00  0.00    +0.000 C 
ATOM      5  N   UNK A   2      75.993   7.467 -32.596  0.00  0.00    +0.000 N 
ATOM      6  H   UNK A   2      76.925   7.038 -32.428  0.00  0.00    +0.000 HD
ATOM      7  C   UNK A   1      75.912   8.723 -33.010  0.00  0.00    +0.000 C 
ATOM      8  O   UNK A   1      74.836   9.243 -33.206  0.00  0.00    +0.000 OA
ATOM      9  C   UNK A   1      77.210   9.478 -33.314  0.00  0.00    +0.000 C 
ATOM     10  C   UNK A   1      78.409   8.900 -32.568  0.00  0.00    +0.000 C 
ATOM     11  S   UNK A   1      79.136   7.473 -33.410  0.00  0.00    +0.000 S 
ENDROOT
BRANCH   4  12
ATOM     12  C   UNK A   2      73.728   7.409 -31.545  0.00  0.00    +0.000 C 
ATOM     13  O   UNK A   2      74.031   7.989 -30.479  0.00  0.00    +0.000 OA
ATOM     14  N   GLY A   3      72.502   7.315 -32.032  0.00  0.00    +0.000 N 
ATOM     15  H   GLY A   3      72.359   6.729 -32.880  0.00  0.00    +0.000 HD
BRANCH  14  16
ATOM     16  CA  GLY A   3      71.350   7.972 -31.464  0.00  0.00    +0.000 C 
BRANCH  16  17
ATOM     17  C   GLY A   3      71.002   9.315 -32.083  0.00  0.00    +0.000 C 
ATOM     18  O   GLY A   3      69.878   9.753 -31.952  0.00  0.00    +0.000 OA
ATOM     19  N   PHE A   4      71.959   9.994 -32.706  0.00  0.00    +0.000 N 
ATOM     20  H   PHE A   4      72.937   9.642 -32.696  0.00  0.00    +0.000 HD
BRANCH  19  21
ATOM     21  CA  PHE A   4      71.632  11.252 -33.414  0.00  0.00    +0.000 C 
BRANCH  21  22
ATOM     22  C   PHE A   4      70.719  11.016 -34.618  0.00  0.00    +0.000 C 
ATOM     23  O   PHE A   4      71.074  10.240 -35.536  0.00  0.00    +0.000 OA
ENDBRANCH  21  22
BRANCH  21  24
ATOM     24  CB  PHE A   4      72.880  11.965 -33.875  0.00  0.00    +0.000 C 
BRANCH  24  25
ATOM     25  CG  PHE A   4      73.422  12.924 -32.890  0.00  0.00    +0.000 A 
ATOM     26  CD2 PHE A   4      74.067  12.482 -31.744  0.00  0.00    +0.000 A 
ATOM     27  CE2 PHE A   4      74.593  13.374 -30.839  0.00  0.00    +0.000 A 
ATOM     28  CZ  PHE A   4      74.484  14.730 -31.065  0.00  0.00    +0.000 A 
ATOM     29  CE1 PHE A   4      73.848  15.188 -32.199  0.00  0.00    +0.000 A 
ATOM     30  CD1 PHE A   4      73.319  14.292 -33.116  0.00  0.00    +0.000 A 
ENDBRANCH  24  25
ENDBRANCH  21  24
ENDBRANCH  19  21
ENDBRANCH  16  17
ENDBRANCH  14  16
ENDBRANCH   4  12
BRANCH   9  31
ATOM     31  N   UNK A   1      77.071  10.904 -33.015  0.00  0.00    +0.000 NA
ATOM     32  H   UNK A   1      76.847  11.196 -32.042  0.00  0.00    +0.000 HD
BRANCH  31  33
ATOM     33  C   UNK A   0      77.222  11.831 -33.945  0.00  0.00    +0.000 C 
BRANCH  33  34
ATOM     34  O   UNK A   0      77.483  11.575 -35.142  0.00  0.00    +0.000 OA
ATOM     35  K   UNK A   0      78.340  11.048 -37.595  0.00  0.00    +0.000 K 
ENDBRANCH  33  34
BRANCH  33  36
ATOM     36  C   UNK A   0      77.073  13.260 -33.462  0.00  0.00    +0.000 C 
BRANCH  36  37
ATOM     37  N   UNK A   0      77.642  14.220 -34.382  0.00  0.00    +0.000 NA
ATOM     38  H   UNK A   0      77.812  13.941 -35.369  0.00  0.00    +0.000 HD
ENDBRANCH  36  37
ENDBRANCH  33  36
ENDBRANCH  31  33
ENDBRANCH   9  31
BRANCH   1  39
ATOM     39  S   UNK A   2      79.447   4.899 -30.323  0.00  0.00    +0.000 S 
BRANCH  39  40
ATOM     40  C   UNK A   2      80.802   6.117 -30.382  0.00  0.00    +0.000 C 
BRANCH  40  41
ATOM     41  C   UNK A   2      80.554   7.397 -29.573  0.00  0.00    +0.000 C 
BRANCH  41  42
ATOM     42  C   UNK A   2      80.852   7.173 -28.096  0.00  0.00    +0.000 C 
ATOM     43  O   UNK A   2      81.511   7.986 -27.473  0.00  0.00    +0.000 OA
ATOM     44  N   GLY A   3      80.305   6.084 -27.570  0.00  0.00    +0.000 N 
ATOM     45  H   GLY A   3      79.655   5.541 -28.173  0.00  0.00    +0.000 HD
BRANCH  44  46
ATOM     46  CA  GLY A   3      80.538   5.577 -26.205  0.00  0.00    +0.000 C 
BRANCH  46  47
ATOM     47  C   GLY A   3      79.979   6.372 -25.051  0.00  0.00    +0.000 C 
ATOM     48  O   GLY A   3      79.554   5.774 -24.048  0.00  0.00    +0.000 OA
ENDBRANCH  46  47
BRANCH  46  49
ATOM     49  CB  GLY A   3      82.024   5.226 -26.002  0.00  0.00    +0.000 C 
BRANCH  49  50
ATOM     50  CG  GLY A   3      82.393   3.877 -26.556  0.00  0.00    +0.000 A 
ATOM     51  ND1 GLY A   3      83.488   3.199 -26.156  0.00  0.00    +0.000 NA
ATOM     52  CE1 GLY A   3      83.550   2.025 -26.821  0.00  0.00    +0.000 A 
ATOM     53  NE2 GLY A   3      82.496   1.957 -27.659  0.00  0.00    +0.000 NA
ATOM     54  CD2 GLY A   3      81.763   3.085 -27.522  0.00  0.00    +0.000 A 
ENDBRANCH  49  50
ENDBRANCH  46  49
ENDBRANCH  44  46
ENDBRANCH  41  42
BRANCH  41  57
ATOM     55  C   UNK A   1      82.587   8.645 -30.292  0.00  0.00    +0.000 C 
ATOM     56  O   UNK A   1      83.384   7.802 -29.914  0.00  0.00    +0.000 OA
ATOM     57  N   UNK A   2      81.272   8.563 -30.103  0.00  0.00    +0.000 N 
ATOM     58  H   UNK A   2      80.704   9.397 -30.352  0.00  0.00    +0.000 HD
BRANCH  55  59
ATOM     59  C   UNK A   1      83.070   9.860 -31.074  0.00  0.00    +0.000 C 
BRANCH  59  60
ATOM     60  N   UNK A   1      84.387  10.273 -30.643  0.00  0.00    +0.000 NA
ATOM     61  H   UNK A   1      85.073   9.549 -30.350  0.00  0.00    +0.000 HD
ENDBRANCH  59  60
BRANCH  59  62
ATOM     62  C   UNK A   1      83.066   9.574 -32.605  0.00  0.00    +0.000 C 
BRANCH  62  63
ATOM     63  C   UNK A   1      83.664   8.214 -32.968  0.00  0.00    +0.000 C 
ATOM     64  O   UNK A   1      84.874   8.034 -32.948  0.00  0.00    +0.000 OA
ATOM     65  N   UNK A   1      82.825   7.292 -33.389  0.00  0.00    +0.000 N 
ATOM     66  H   UNK A   1      81.802   7.482 -33.391  0.00  0.00    +0.000 HD
ATOM     67  H   UNK A   1      83.184   6.374 -33.719  0.00  0.00    +0.000 HD
ENDBRANCH  62  63
ENDBRANCH  59  62
ENDBRANCH  55  59
ENDBRANCH  41  57
ENDBRANCH  40  41
ENDBRANCH  39  40
ENDBRANCH   1  39
TORSDOF 25
REMARK  Name = ../refined-set-2016/4m3p/4m3p_pocket.pdb
REMARK  127 active torsions:
REMARK  status: ('A' for Active; 'I' for Inactive)
REMARK    1  A    between atoms: _1  and  _3
REMARK    2  A    between atoms: _3  and  _4
REMARK    3  A    between atoms: _3  and  _6
REMARK    4  A    between atoms: _6  and  _7
REMARK    5  A    between atoms: _10  and  _12
REMARK    6  A    between atoms: _12  and  _13
REMARK    7  A    between atoms: _15  and  _17
REMARK    8  A    between atoms: _17  and  _18
REMARK    9  A    between atoms: _20  and  _22
REMARK   10  A    between atoms: _22  and  _23
REMARK   11  A    between atoms: _22  and  _25
REMARK   12  A    between atoms: _25  and  _26
REMARK   13  A    between atoms: _32  and  _34
REMARK   14  A    between atoms: _34  and  _35
REMARK   15  A    between atoms: _34  and  _37
REMARK   16  A    between atoms: _40  and  _42
REMARK   17  A    between atoms: _42  and  _43
REMARK   18  A    between atoms: _42  and  _45
REMARK   19  A    between atoms: _45  and  _46
REMARK   20  A    between atoms: _52  and  _54
REMARK   21  A    between atoms: _54  and  _55
REMARK   22  A    between atoms: _58  and  _60
REMARK   23  A    between atoms: _60  and  _61
REMARK   24  A    between atoms: _60  and  _63
REMARK   25  A    between atoms: _63  and  _64
REMARK   26  A    between atoms: _67  and  _69
REMARK   27  A    between atoms: _69  and  _70
REMARK   28  A    between atoms: _69  and  _72
REMARK   29  A    between atoms: _72  and  _73
REMARK   30  A    between atoms: _73  and  _74
REMARK   31  A    between atoms: _77  and  _79
REMARK   32  A    between atoms: _79  and  _80
REMARK   33  A    between atoms: _79  and  _82
REMARK   34  A    between atoms: _85  and  _87
REMARK   35  A    between atoms: _87  and  _88
REMARK   36  A    between atoms: _87  and  _90
REMARK   37  A    between atoms: _90  and  _91
REMARK   38  A    between atoms: _101  and  _103
REMARK   39  A    between atoms: _103  and  _104
REMARK   40  A    between atoms: _103  and  _106
REMARK   41  A    between atoms: _106  and  _107
REMARK   42  A    between atoms: _110  and  _112
REMARK   43  A    between atoms: _112  and  _113
REMARK   44  A    between atoms: _112  and  _115
REMARK   45  A    between atoms: _115  and  _116
REMARK   46  A    between atoms: _122  and  _124
REMARK   47  A    between atoms: _124  and  _125
REMARK   48  A    between atoms: _124  and  _127
REMARK   49  A    between atoms: _127  and  _128
REMARK   50  A    between atoms: _128  and  _129
REMARK   51  A    between atoms: _134  and  _136
REMARK   52  A    between atoms: _136  and  _137
REMARK   53  A    between atoms: _136  and  _139
REMARK   54  A    between atoms: _139  and  _140
REMARK   55  A    between atoms: _143  and  _145
REMARK   56  A    between atoms: _145  and  _146
REMARK   57  A    between atoms: _145  and  _148
REMARK   58  A    between atoms: _148  and  _149
REMARK   59  A    between atoms: _155  and  _157
REMARK   60  A    between atoms: _157  and  _158
REMARK   61  A    between atoms: _157  and  _160
REMARK   62  A    between atoms: _160  and  _161
REMARK   63  A    between atoms: _164  and  _166
REMARK   64  A    between atoms: _166  and  _167
REMARK   65  A    between atoms: _169  and  _171
REMARK   66  A    between atoms: _171  and  _172
REMARK   67  A    between atoms: _171  and  _174
REMARK   68  A    between atoms: _174  and  _175
REMARK   69  A    between atoms: _177  and  _179
REMARK   70  A    between atoms: _179  and  _180
REMARK   71  A    between atoms: _179  and  _182
REMARK   72  A    between atoms: _182  and  _183
REMARK   73  A    between atoms: _186  and  _188
REMARK   74  A    between atoms: _188  and  _189
REMARK   75  A    between atoms: _188  and  _191
REMARK   76  A    between atoms: _191  and  _192
REMARK   77  A    between atoms: _192  and  _193
REMARK   78  A    between atoms: _196  and  _198
REMARK   79  A    between atoms: _198  and  _199
REMARK   80  A    between atoms: _198  and  _201
REMARK   81  A    between atoms: _201  and  _202
REMARK   82  A    between atoms: _207  and  _208
REMARK   83  A    between atoms: _210  and  _212
REMARK   84  A    between atoms: _212  and  _213
REMARK   85  A    between atoms: _212  and  _215
REMARK   86  A    between atoms: _215  and  _216
REMARK   87  A    between atoms: _219  and  _221
REMARK   88  A    between atoms: _221  and  _222
REMARK   89  A    between atoms: _221  and  _224
REMARK   90  A    between atoms: _226  and  _228
REMARK   91  A    between atoms: _228  and  _229
REMARK   92  A    between atoms: _228  and  _231
REMARK   93  A    between atoms: _231  and  _232
REMARK   94  A    between atoms: _237  and  _239
REMARK   95  A    between atoms: _239  and  _240
REMARK   96  A    between atoms: _239  and  _242
REMARK   97  A    between atoms: _242  and  _243
REMARK   98  A    between atoms: _243  and  ZN_324
REMARK   99  A    between atoms: _244  and  _246
REMARK  100  A    between atoms: _246  and  _247
REMARK  101  A    between atoms: _246  and  _249
REMARK  102  A    between atoms: _249  and  _250
REMARK  103  A    between atoms: _255  and  _257
REMARK  104  A    between atoms: _257  and  _258
REMARK  105  A    between atoms: _257  and  _260
REMARK  106  A    between atoms: _260  and  _261
REMARK  107  A    between atoms: _261  and  _262
REMARK  108  A    between atoms: _267  and  _269
REMARK  109  A    between atoms: _269  and  _270
REMARK  110  A    between atoms: _269  and  _272
REMARK  111  A    between atoms: _272  and  _273
REMARK  112  A    between atoms: _276  and  _278
REMARK  113  A    between atoms: _278  and  _279
REMARK  114  A    between atoms: _278  and  _281
REMARK  115  A    between atoms: _281  and  _282
REMARK  116  A    between atoms: _288  and  _290
REMARK  117  A    between atoms: _290  and  _291
REMARK  118  A    between atoms: _291  and  _292
REMARK  119  A    between atoms: _291  and  _293
REMARK  120  A    between atoms: _293  and  _295
REMARK  121  A    between atoms: _302  and  _303
REMARK  122  A    between atoms: _307  and  _309
REMARK  123  A    between atoms: _309  and  _310
REMARK  124  A    between atoms: _312  and  _314
REMARK  125  A    between atoms: _314  and  _315
REMARK  126  A    between atoms: _314  and  _317
REMARK  127  A    between atoms: _317  and  _318
REMARK                            x       y       z     vdW  Elec       q    Type
REMARK                         _______ _______ _______ _____ _____    ______ ____
ROOT
ATOM      1  CB  GLN A   1      80.925  12.448 -33.600  0.00  0.00    +0.035 C 
ENDROOT
BRANCH   1   2
ATOM      2  CA  GLN A   1      80.635  13.169 -32.277  0.00  0.00    +0.134 C 
BRANCH   2   3
ATOM      3  N   GLN A   1      81.828  13.905 -31.821  0.00  0.00    -0.239 NA
ATOM      4  H   GLN A   1      82.600  13.374 -31.370  0.00  0.00    +0.142 HD
ENDBRANCH   2   3
BRANCH   2   5
ATOM      5  C   GLN A   1      80.111  12.241 -31.174  0.00  0.00    +0.224 C 
ATOM      6  O   GLN A   1      80.262  10.992 -31.213  0.00  0.00    -0.287 OA
ENDBRANCH   2   5
ENDBRANCH   1   2
BRANCH   1   7
ATOM      7  CG  GLN A   1      81.356  13.443 -34.672  0.00  0.00    +0.087 C 
BRANCH   7   8
ATOM      8  CD  GLN A   1      81.008  13.030 -36.084  0.00  0.00    +0.219 C 
ATOM      9  NE2 GLN A   1      81.749  12.096 -36.607  0.00  0.00    -0.329 N 
ATOM     10 HE21 GLN A   1      82.516  11.667 -36.050  0.00  0.00    +0.145 HD
ATOM     11 HE22 GLN A   1      81.574  11.778 -37.582  0.00  0.00    +0.145 HD
ATOM     12  OE1 GLN A   1      80.082  13.573 -36.705  0.00  0.00    -0.275 OA
ENDBRANCH   7   8
ENDBRANCH   1   7
TORSDOF 5
REMARK  Name = ../refined-set-2016/4m3p/4m3p_pocket.pdb
REMARK  127 active torsions:
REMARK  status: ('A' for Active; 'I' for Inactive)
REMARK    1  A    between atoms: _1  and  _3
REMARK    2  A    between atoms: _3  and  _4
REMARK    3  A    between atoms: _3  and  _6
REMARK    4  A    between atoms: _6  and  _7
REMARK    5  A    between atoms: _10  and  _12
REMARK    6  A    between atoms: _12  and  _13
REMARK    7  A    between atoms: _15  and  _17
REMARK    8  A    between atoms: _17  and  _18
REMARK    9  A    between atoms: _20  and  _22
REMARK   10  A    between atoms: _22  and  _23
REMARK   11  A    between atoms: _22  and  _25
REMARK   12  A    between atoms: _25  and  _26
REMARK   13  A    between atoms: _32  and  _34
REMARK   14  A    between atoms: _34  and  _35
REMARK   15  A    between atoms: _34  and  _37
REMARK   16  A    between atoms: _40  and  _42
REMARK   17  A    between atoms: _42  and  _43
REMARK   18  A    between atoms: _42  and  _45
REMARK   19  A    between atoms: _45  and  _46
REMARK   20  A    between atoms: _52  and  _54
REMARK   21  A    between atoms: _54  and  _55
REMARK   22  A    between atoms: _58  and  _60
REMARK   23  A    between atoms: _60  and  _61
REMARK   24  A    between atoms: _60  and  _63
REMARK   25  A    between atoms: _63  and  _64
REMARK   26  A    between atoms: _67  and  _69
REMARK   27  A    between atoms: _69  and  _70
REMARK   28  A    between atoms: _69  and  _72
REMARK   29  A    between atoms: _72  and  _73
REMARK   30  A    between atoms: _73  and  _74
REMARK   31  A    between atoms: _77  and  _79
REMARK   32  A    between atoms: _79  and  _80
REMARK   33  A    between atoms: _79  and  _82
REMARK   34  A    between atoms: _85  and  _87
REMARK   35  A    between atoms: _87  and  _88
REMARK   36  A    between atoms: _87  and  _90
REMARK   37  A    between atoms: _90  and  _91
REMARK   38  A    between atoms: _101  and  _103
REMARK   39  A    between atoms: _103  and  _104
REMARK   40  A    between atoms: _103  and  _106
REMARK   41  A    between atoms: _106  and  _107
REMARK   42  A    between atoms: _110  and  _112
REMARK   43  A    between atoms: _112  and  _113
REMARK   44  A    between atoms: _112  and  _115
REMARK   45  A    between atoms: _115  and  _116
REMARK   46  A    between atoms: _122  and  _124
REMARK   47  A    between atoms: _124  and  _125
REMARK   48  A    between atoms: _124  and  _127
REMARK   49  A    between atoms: _127  and  _128
REMARK   50  A    between atoms: _128  and  _129
REMARK   51  A    between atoms: _134  and  _136
REMARK   52  A    between atoms: _136  and  _137
REMARK   53  A    between atoms: _136  and  _139
REMARK   54  A    between atoms: _139  and  _140
REMARK   55  A    between atoms: _143  and  _145
REMARK   56  A    between atoms: _145  and  _146
REMARK   57  A    between atoms: _145  and  _148
REMARK   58  A    between atoms: _148  and  _149
REMARK   59  A    between atoms: _155  and  _157
REMARK   60  A    between atoms: _157  and  _158
REMARK   61  A    between atoms: _157  and  _160
REMARK   62  A    between atoms: _160  and  _161
REMARK   63  A    between atoms: _164  and  _166
REMARK   64  A    between atoms: _166  and  _167
REMARK   65  A    between atoms: _169  and  _171
REMARK   66  A    between atoms: _171  and  _172
REMARK   67  A    between atoms: _171  and  _174
REMARK   68  A    between atoms: _174  and  _175
REMARK   69  A    between atoms: _177  and  _179
REMARK   70  A    between atoms: _179  and  _180
REMARK   71  A    between atoms: _179  and  _182
REMARK   72  A    between atoms: _182  and  _183
REMARK   73  A    between atoms: _186  and  _188
REMARK   74  A    between atoms: _188  and  _189
REMARK   75  A    between atoms: _188  and  _191
REMARK   76  A    between atoms: _191  and  _192
REMARK   77  A    between atoms: _192  and  _193
REMARK   78  A    between atoms: _196  and  _198
REMARK   79  A    between atoms: _198  and  _199
REMARK   80  A    between atoms: _198  and  _201
REMARK   81  A    between atoms: _201  and  _202
REMARK   82  A    between atoms: _207  and  _208
REMARK   83  A    between atoms: _210  and  _212
REMARK   84  A    between atoms: _212  and  _213
REMARK   85  A    between atoms: _212  and  _215
REMARK   86  A    between atoms: _215  and  _216
REMARK   87  A    between atoms: _219  and  _221
REMARK   88  A    between atoms: _221  and  _222
REMARK   89  A    between atoms: _221  and  _224
REMARK   90  A    between atoms: _226  and  _228
REMARK   91  A    between atoms: _228  and  _229
REMARK   92  A    between atoms: _228  and  _231
REMARK   93  A    between atoms: _231  and  _232
REMARK   94  A    between atoms: _237  and  _239
REMARK   95  A    between atoms: _239  and  _240
REMARK   96  A    between atoms: _239  and  _242
REMARK   97  A    between atoms: _242  and  _243
REMARK   98  A    between atoms: _243  and  ZN_324
REMARK   99  A    between atoms: _244  and  _246
REMARK  100  A    between atoms: _246  and  _247
REMARK  101  A    between atoms: _246  and  _249
REMARK  102  A    between atoms: _249  and  _250
REMARK  103  A    between atoms: _255  and  _257
REMARK  104  A    between atoms: _257  and  _258
REMARK  105  A    between atoms: _257  and  _260
REMARK  106  A    between atoms: _260  and  _261
REMARK  107  A    between atoms: _261  and  _262
REMARK  108  A    between atoms: _267  and  _269
REMARK  109  A    between atoms: _269  and  _270
REMARK  110  A    between atoms: _269  and  _272
REMARK  111  A    between atoms: _272  and  _273
REMARK  112  A    between atoms: _276  and  _278
REMARK  113  A    between atoms: _278  and  _279
REMARK  114  A    between atoms: _278  and  _281
REMARK  115  A    between atoms: _281  and  _282
REMARK  116  A    between atoms: _288  and  _290
REMARK  117  A    between atoms: _290  and  _291
REMARK  118  A    between atoms: _291  and  _292
REMARK  119  A    between atoms: _291  and  _293
REMARK  120  A    between atoms: _293  and  _295
REMARK  121  A    between atoms: _302  and  _303
REMARK  122  A    between atoms: _307  and  _309
REMARK  123  A    between atoms: _309  and  _310
REMARK  124  A    between atoms: _312  and  _314
REMARK  125  A    between atoms: _314  and  _315
REMARK  126  A    between atoms: _314  and  _317
REMARK  127  A    between atoms: _317  and  _318
REMARK                            x       y       z     vdW  Elec       q    Type
REMARK                         _______ _______ _______ _____ _____    ______ ____
ROOT
ATOM      1  CA  LEU A   1      76.149   9.747 -28.421  0.00  0.00    +0.133 C 
ENDROOT
BRANCH   1   2
ATOM      2  N   LEU A   1      77.448  10.401 -28.402  0.00  0.00    -0.239 NA
ATOM      3  H   LEU A   1      78.117  10.160 -27.643  0.00  0.00    +0.142 HD
ENDBRANCH   1   2
BRANCH   1   4
ATOM      4  C   LEU A   1      75.075  10.809 -28.245  0.00  0.00    +0.224 C 
ATOM      5  O   LEU A   1      75.376  11.883 -27.668  0.00  0.00    -0.287 OA
ENDBRANCH   1   4
BRANCH   1   6
ATOM      6  CB  LEU A   1      76.051   8.758 -27.259  0.00  0.00    +0.025 C 
BRANCH   6   7
ATOM      7  CG  LEU A   1      76.971   7.532 -27.242  0.00  0.00    +0.002 C 
ATOM      8  CD2 LEU A   1      76.724   6.699 -25.998  0.00  0.00    +0.000 C 
ATOM      9  CD1 LEU A   1      76.727   6.712 -28.492  0.00  0.00    +0.000 C 
ENDBRANCH   6   7
ENDBRANCH   1   6
TORSDOF 4
REMARK  Name = ../refined-set-2016/4m3p/4m3p_pocket.pdb
REMARK  127 active torsions:
REMARK  status: ('A' for Active; 'I' for Inactive)
REMARK    1  A    between atoms: _1  and  _3
REMARK    2  A    between atoms: _3  and  _4
REMARK    3  A    between atoms: _3  and  _6
REMARK    4  A    between atoms: _6  and  _7
REMARK    5  A    between atoms: _10  and  _12
REMARK    6  A    between atoms: _12  and  _13
REMARK    7  A    between atoms: _15  and  _17
REMARK    8  A    between atoms: _17  and  _18
REMARK    9  A    between atoms: _20  and  _22
REMARK   10  A    between atoms: _22  and  _23
REMARK   11  A    between atoms: _22  and  _25
REMARK   12  A    between atoms: _25  and  _26
REMARK   13  A    between atoms: _32  and  _34
REMARK   14  A    between atoms: _34  and  _35
REMARK   15  A    between atoms: _34  and  _37
REMARK   16  A    between atoms: _40  and  _42
REMARK   17  A    between atoms: _42  and  _43
REMARK   18  A    between atoms: _42  and  _45
REMARK   19  A    between atoms: _45  and  _46
REMARK   20  A    between atoms: _52  and  _54
REMARK   21  A    between atoms: _54  and  _55
REMARK   22  A    between atoms: _58  and  _60
REMARK   23  A    between atoms: _60  and  _61
REMARK   24  A    between atoms: _60  and  _63
REMARK   25  A    between atoms: _63  and  _64
REMARK   26  A    between atoms: _67  and  _69
REMARK   27  A    between atoms: _69  and  _70
REMARK   28  A    between atoms: _69  and  _72
REMARK   29  A    between atoms: _72  and  _73
REMARK   30  A    between atoms: _73  and  _74
REMARK   31  A    between atoms: _77  and  _79
REMARK   32  A    between atoms: _79  and  _80
REMARK   33  A    between atoms: _79  and  _82
REMARK   34  A    between atoms: _85  and  _87
REMARK   35  A    between atoms: _87  and  _88
REMARK   36  A    between atoms: _87  and  _90
REMARK   37  A    between atoms: _90  and  _91
REMARK   38  A    between atoms: _101  and  _103
REMARK   39  A    between atoms: _103  and  _104
REMARK   40  A    between atoms: _103  and  _106
REMARK   41  A    between atoms: _106  and  _107
REMARK   42  A    between atoms: _110  and  _112
REMARK   43  A    between atoms: _112  and  _113
REMARK   44  A    between atoms: _112  and  _115
REMARK   45  A    between atoms: _115  and  _116
REMARK   46  A    between atoms: _122  and  _124
REMARK   47  A    between atoms: _124  and  _125
REMARK   48  A    between atoms: _124  and  _127
REMARK   49  A    between atoms: _127  and  _128
REMARK   50  A    between atoms: _128  and  _129
REMARK   51  A    between atoms: _134  and  _136
REMARK   52  A    between atoms: _136  and  _137
REMARK   53  A    between atoms: _136  and  _139
REMARK   54  A    between atoms: _139  and  _140
REMARK   55  A    between atoms: _143  and  _145
REMARK   56  A    between atoms: _145  and  _146
REMARK   57  A    between atoms: _145  and  _148
REMARK   58  A    between atoms: _148  and  _149
REMARK   59  A    between atoms: _155  and  _157
REMARK   60  A    between atoms: _157  and  _158
REMARK   61  A    between atoms: _157  and  _160
REMARK   62  A    between atoms: _160  and  _161
REMARK   63  A    between atoms: _164  and  _166
REMARK   64  A    between atoms: _166  and  _167
REMARK   65  A    between atoms: _169  and  _171
REMARK   66  A    between atoms: _171  and  _172
REMARK   67  A    between atoms: _171  and  _174
REMARK   68  A    between atoms: _174  and  _175
REMARK   69  A    between atoms: _177  and  _179
REMARK   70  A    between atoms: _179  and  _180
REMARK   71  A    between atoms: _179  and  _182
REMARK   72  A    between atoms: _182  and  _183
REMARK   73  A    between atoms: _186  and  _188
REMARK   74  A    between atoms: _188  and  _189
REMARK   75  A    between atoms: _188  and  _191
REMARK   76  A    between atoms: _191  and  _192
REMARK   77  A    between atoms: _192  and  _193
REMARK   78  A    between atoms: _196  and  _198
REMARK   79  A    between atoms: _198  and  _199
REMARK   80  A    between atoms: _198  and  _201
REMARK   81  A    between atoms: _201  and  _202
REMARK   82  A    between atoms: _207  and  _208
REMARK   83  A    between atoms: _210  and  _212
REMARK   84  A    between atoms: _212  and  _213
REMARK   85  A    between atoms: _212  and  _215
REMARK   86  A    between atoms: _215  and  _216
REMARK   87  A    between atoms: _219  and  _221
REMARK   88  A    between atoms: _221  and  _222
REMARK   89  A    between atoms: _221  and  _224
REMARK   90  A    between atoms: _226  and  _228
REMARK   91  A    between atoms: _228  and  _229
REMARK   92  A    between atoms: _228  and  _231
REMARK   93  A    between atoms: _231  and  _232
REMARK   94  A    between atoms: _237  and  _239
REMARK   95  A    between atoms: _239  and  _240
REMARK   96  A    between atoms: _239  and  _242
REMARK   97  A    between atoms: _242  and  _243
REMARK   98  A    between atoms: _243  and  ZN_324
REMARK   99  A    between atoms: _244  and  _246
REMARK  100  A    between atoms: _246  and  _247
REMARK  101  A    between atoms: _246  and  _249
REMARK  102  A    between atoms: _249  and  _250
REMARK  103  A    between atoms: _255  and  _257
REMARK  104  A    between atoms: _257  and  _258
REMARK  105  A    between atoms: _257  and  _260
REMARK  106  A    between atoms: _260  and  _261
REMARK  107  A    between atoms: _261  and  _262
REMARK  108  A    between atoms: _267  and  _269
REMARK  109  A    between atoms: _269  and  _270
REMARK  110  A    between atoms: _269  and  _272
REMARK  111  A    between atoms: _272  and  _273
REMARK  112  A    between atoms: _276  and  _278
REMARK  113  A    between atoms: _278  and  _279
REMARK  114  A    between atoms: _278  and  _281
REMARK  115  A    between atoms: _281  and  _282
REMARK  116  A    between atoms: _288  and  _290
REMARK  117  A    between atoms: _290  and  _291
REMARK  118  A    between atoms: _291  and  _292
REMARK  119  A    between atoms: _291  and  _293
REMARK  120  A    between atoms: _293  and  _295
REMARK  121  A    between atoms: _302  and  _303
REMARK  122  A    between atoms: _307  and  _309
REMARK  123  A    between atoms: _309  and  _310
REMARK  124  A    between atoms: _312  and  _314
REMARK  125  A    between atoms: _314  and  _315
REMARK  126  A    between atoms: _314  and  _317
REMARK  127  A    between atoms: _317  and  _318
REMARK                            x       y       z     vdW  Elec       q    Type
REMARK                         _______ _______ _______ _____ _____    ______ ____
ROOT
ATOM      1  CB  PHE A   1      76.668   3.554 -23.941  0.00  0.00    +0.051 C 
ENDROOT
BRANCH   1   2
ATOM      2  CG  PHE A   1      76.538   3.321 -25.445  0.00  0.00    -0.020 A 
ATOM      3  CD2 PHE A   1      75.295   3.521 -26.064  0.00  0.00    -0.004 A 
ATOM      4  CE2 PHE A   1      75.138   3.383 -27.438  0.00  0.00    -0.000 A 
ATOM      5  CZ  PHE A   1      76.231   3.073 -28.215  0.00  0.00    -0.000 A 
ATOM      6  CE1 PHE A   1      77.471   2.885 -27.628  0.00  0.00    -0.000 A 
ATOM      7  CD1 PHE A   1      77.624   3.037 -26.246  0.00  0.00    -0.004 A 
ENDBRANCH   1   2
BRANCH   1   8
ATOM      8  CA  PHE A   1      77.584   2.573 -23.178  0.00  0.00    +0.137 C 
BRANCH   8   9
ATOM      9  N   PHE A   1      78.991   2.962 -23.282  0.00  0.00    -0.239 NA
ATOM     10  H   PHE A   1      79.301   3.560 -24.074  0.00  0.00    +0.142 HD
ENDBRANCH   8   9
BRANCH   8  11
ATOM     11  C   PHE A   1      77.274   1.124 -23.484  0.00  0.00    +0.224 C 
ATOM     12  O   PHE A   1      76.224   0.628 -23.094  0.00  0.00    -0.287 OA
ENDBRANCH   8  11
ENDBRANCH   1   8
TORSDOF 4
REMARK  Name = ../refined-set-2016/4m3p/4m3p_pocket.pdb
REMARK  127 active torsions:
REMARK  status: ('A' for Active; 'I' for Inactive)
REMARK    1  A    between atoms: _1  and  _3
REMARK    2  A    between atoms: _3  and  _4
REMARK    3  A    between atoms: _3  and  _6
REMARK    4  A    between atoms: _6  and  _7
REMARK    5  A    between atoms: _10  and  _12
REMARK    6  A    between atoms: _12  and  _13
REMARK    7  A    between atoms: _15  and  _17
REMARK    8  A    between atoms: _17  and  _18
REMARK    9  A    between atoms: _20  and  _22
REMARK   10  A    between atoms: _22  and  _23
REMARK   11  A    between atoms: _22  and  _25
REMARK   12  A    between atoms: _25  and  _26
REMARK   13  A    between atoms: _32  and  _34
REMARK   14  A    between atoms: _34  and  _35
REMARK   15  A    between atoms: _34  and  _37
REMARK   16  A    between atoms: _40  and  _42
REMARK   17  A    between atoms: _42  and  _43
REMARK   18  A    between atoms: _42  and  _45
REMARK   19  A    between atoms: _45  and  _46
REMARK   20  A    between atoms: _52  and  _54
REMARK   21  A    between atoms: _54  and  _55
REMARK   22  A    between atoms: _58  and  _60
REMARK   23  A    between atoms: _60  and  _61
REMARK   24  A    between atoms: _60  and  _63
REMARK   25  A    between atoms: _63  and  _64
REMARK   26  A    between atoms: _67  and  _69
REMARK   27  A    between atoms: _69  and  _70
REMARK   28  A    between atoms: _69  and  _72
REMARK   29  A    between atoms: _72  and  _73
REMARK   30  A    between atoms: _73  and  _74
REMARK   31  A    between atoms: _77  and  _79
REMARK   32  A    between atoms: _79  and  _80
REMARK   33  A    between atoms: _79  and  _82
REMARK   34  A    between atoms: _85  and  _87
REMARK   35  A    between atoms: _87  and  _88
REMARK   36  A    between atoms: _87  and  _90
REMARK   37  A    between atoms: _90  and  _91
REMARK   38  A    between atoms: _101  and  _103
REMARK   39  A    between atoms: _103  and  _104
REMARK   40  A    between atoms: _103  and  _106
REMARK   41  A    between atoms: _106  and  _107
REMARK   42  A    between atoms: _110  and  _112
REMARK   43  A    between atoms: _112  and  _113
REMARK   44  A    between atoms: _112  and  _115
REMARK   45  A    between atoms: _115  and  _116
REMARK   46  A    between atoms: _122  and  _124
REMARK   47  A    between atoms: _124  and  _125
REMARK   48  A    between atoms: _124  and  _127
REMARK   49  A    between atoms: _127  and  _128
REMARK   50  A    between atoms: _128  and  _129
REMARK   51  A    between atoms: _134  and  _136
REMARK   52  A    between atoms: _136  and  _137
REMARK   53  A    between atoms: _136  and  _139
REMARK   54  A    between atoms: _139  and  _140
REMARK   55  A    between atoms: _143  and  _145
REMARK   56  A    between atoms: _145  and  _146
REMARK   57  A    between atoms: _145  and  _148
REMARK   58  A    between atoms: _148  and  _149
REMARK   59  A    between atoms: _155  and  _157
REMARK   60  A    between atoms: _157  and  _158
REMARK   61  A    between atoms: _157  and  _160
REMARK   62  A    between atoms: _160  and  _161
REMARK   63  A    between atoms: _164  and  _166
REMARK   64  A    between atoms: _166  and  _167
REMARK   65  A    between atoms: _169  and  _171
REMARK   66  A    between atoms: _171  and  _172
REMARK   67  A    between atoms: _171  and  _174
REMARK   68  A    between atoms: _174  and  _175
REMARK   69  A    between atoms: _177  and  _179
REMARK   70  A    between atoms: _179  and  _180
REMARK   71  A    between atoms: _179  and  _182
REMARK   72  A    between atoms: _182  and  _183
REMARK   73  A    between atoms: _186  and  _188
REMARK   74  A    between atoms: _188  and  _189
REMARK   75  A    between atoms: _188  and  _191
REMARK   76  A    between atoms: _191  and  _192
REMARK   77  A    between atoms: _192  and  _193
REMARK   78  A    between atoms: _196  and  _198
REMARK   79  A    between atoms: _198  and  _199
REMARK   80  A    between atoms: _198  and  _201
REMARK   81  A    between atoms: _201  and  _202
REMARK   82  A    between atoms: _207  and  _208
REMARK   83  A    between atoms: _210  and  _212
REMARK   84  A    between atoms: _212  and  _213
REMARK   85  A    between atoms: _212  and  _215
REMARK   86  A    between atoms: _215  and  _216
REMARK   87  A    between atoms: _219  and  _221
REMARK   88  A    between atoms: _221  and  _222
REMARK   89  A    between atoms: _221  and  _224
REMARK   90  A    between atoms: _226  and  _228
REMARK   91  A    between atoms: _228  and  _229
REMARK   92  A    between atoms: _228  and  _231
REMARK   93  A    between atoms: _231  and  _232
REMARK   94  A    between atoms: _237  and  _239
REMARK   95  A    between atoms: _239  and  _240
REMARK   96  A    between atoms: _239  and  _242
REMARK   97  A    between atoms: _242  and  _243
REMARK   98  A    between atoms: _243  and  ZN_324
REMARK   99  A    between atoms: _244  and  _246
REMARK  100  A    between atoms: _246  and  _247
REMARK  101  A    between atoms: _246  and  _249
REMARK  102  A    between atoms: _249  and  _250
REMARK  103  A    between atoms: _255  and  _257
REMARK  104  A    between atoms: _257  and  _258
REMARK  105  A    between atoms: _257  and  _260
REMARK  106  A    between atoms: _260  and  _261
REMARK  107  A    between atoms: _261  and  _262
REMARK  108  A    between atoms: _267  and  _269
REMARK  109  A    between atoms: _269  and  _270
REMARK  110  A    between atoms: _269  and  _272
REMARK  111  A    between atoms: _272  and  _273
REMARK  112  A    between atoms: _276  and  _278
REMARK  113  A    between atoms: _278  and  _279
REMARK  114  A    between atoms: _278  and  _281
REMARK  115  A    between atoms: _281  and  _282
REMARK  116  A    between atoms: _288  and  _290
REMARK  117  A    between atoms: _290  and  _291
REMARK  118  A    between atoms: _291  and  _292
REMARK  119  A    between atoms: _291  and  _293
REMARK  120  A    between atoms: _293  and  _295
REMARK  121  A    between atoms: _302  and  _303
REMARK  122  A    between atoms: _307  and  _309
REMARK  123  A    between atoms: _309  and  _310
REMARK  124  A    between atoms: _312  and  _314
REMARK  125  A    between atoms: _314  and  _315
REMARK  126  A    between atoms: _314  and  _317
REMARK  127  A    between atoms: _317  and  _318
REMARK                            x       y       z     vdW  Elec       q    Type
REMARK                         _______ _______ _______ _____ _____    ______ ____
ROOT
ATOM      1  O   HOH     1      74.800   4.884 -35.504  0.00  0.00    +0.000 OA
ENDROOT
TORSDOF 0
REMARK  Name = ../refined-set-2016/4m3p/4m3p_pocket.pdb
REMARK  127 active torsions:
REMARK  status: ('A' for Active; 'I' for Inactive)
REMARK    1  A    between atoms: _1  and  _3
REMARK    2  A    between atoms: _3  and  _4
REMARK    3  A    between atoms: _3  and  _6
REMARK    4  A    between atoms: _6  and  _7
REMARK    5  A    between atoms: _10  and  _12
REMARK    6  A    between atoms: _12  and  _13
REMARK    7  A    between atoms: _15  and  _17
REMARK    8  A    between atoms: _17  and  _18
REMARK    9  A    between atoms: _20  and  _22
REMARK   10  A    between atoms: _22  and  _23
REMARK   11  A    between atoms: _22  and  _25
REMARK   12  A    between atoms: _25  and  _26
REMARK   13  A    between atoms: _32  and  _34
REMARK   14  A    between atoms: _34  and  _35
REMARK   15  A    between atoms: _34  and  _37
REMARK   16  A    between atoms: _40  and  _42
REMARK   17  A    between atoms: _42  and  _43
REMARK   18  A    between atoms: _42  and  _45
REMARK   19  A    between atoms: _45  and  _46
REMARK   20  A    between atoms: _52  and  _54
REMARK   21  A    between atoms: _54  and  _55
REMARK   22  A    between atoms: _58  and  _60
REMARK   23  A    between atoms: _60  and  _61
REMARK   24  A    between atoms: _60  and  _63
REMARK   25  A    between atoms: _63  and  _64
REMARK   26  A    between atoms: _67  and  _69
REMARK   27  A    between atoms: _69  and  _70
REMARK   28  A    between atoms: _69  and  _72
REMARK   29  A    between atoms: _72  and  _73
REMARK   30  A    between atoms: _73  and  _74
REMARK   31  A    between atoms: _77  and  _79
REMARK   32  A    between atoms: _79  and  _80
REMARK   33  A    between atoms: _79  and  _82
REMARK   34  A    between atoms: _85  and  _87
REMARK   35  A    between atoms: _87  and  _88
REMARK   36  A    between atoms: _87  and  _90
REMARK   37  A    between atoms: _90  and  _91
REMARK   38  A    between atoms: _101  and  _103
REMARK   39  A    between atoms: _103  and  _104
REMARK   40  A    between atoms: _103  and  _106
REMARK   41  A    between atoms: _106  and  _107
REMARK   42  A    between atoms: _110  and  _112
REMARK   43  A    between atoms: _112  and  _113
REMARK   44  A    between atoms: _112  and  _115
REMARK   45  A    between atoms: _115  and  _116
REMARK   46  A    between atoms: _122  and  _124
REMARK   47  A    between atoms: _124  and  _125
REMARK   48  A    between atoms: _124  and  _127
REMARK   49  A    between atoms: _127  and  _128
REMARK   50  A    between atoms: _128  and  _129
REMARK   51  A    between atoms: _134  and  _136
REMARK   52  A    between atoms: _136  and  _137
REMARK   53  A    between atoms: _136  and  _139
REMARK   54  A    between atoms: _139  and  _140
REMARK   55  A    between atoms: _143  and  _145
REMARK   56  A    between atoms: _145  and  _146
REMARK   57  A    between atoms: _145  and  _148
REMARK   58  A    between atoms: _148  and  _149
REMARK   59  A    between atoms: _155  and  _157
REMARK   60  A    between atoms: _157  and  _158
REMARK   61  A    between atoms: _157  and  _160
REMARK   62  A    between atoms: _160  and  _161
REMARK   63  A    between atoms: _164  and  _166
REMARK   64  A    between atoms: _166  and  _167
REMARK   65  A    between atoms: _169  and  _171
REMARK   66  A    between atoms: _171  and  _172
REMARK   67  A    between atoms: _171  and  _174
REMARK   68  A    between atoms: _174  and  _175
REMARK   69  A    between atoms: _177  and  _179
REMARK   70  A    between atoms: _179  and  _180
REMARK   71  A    between atoms: _179  and  _182
REMARK   72  A    between atoms: _182  and  _183
REMARK   73  A    between atoms: _186  and  _188
REMARK   74  A    between atoms: _188  and  _189
REMARK   75  A    between atoms: _188  and  _191
REMARK   76  A    between atoms: _191  and  _192
REMARK   77  A    between atoms: _192  and  _193
REMARK   78  A    between atoms: _196  and  _198
REMARK   79  A    between atoms: _198  and  _199
REMARK   80  A    between atoms: _198  and  _201
REMARK   81  A    between atoms: _201  and  _202
REMARK   82  A    between atoms: _207  and  _208
REMARK   83  A    between atoms: _210  and  _212
REMARK   84  A    between atoms: _212  and  _213
REMARK   85  A    between atoms: _212  and  _215
REMARK   86  A    between atoms: _215  and  _216
REMARK   87  A    between atoms: _219  and  _221
REMARK   88  A    between atoms: _221  and  _222
REMARK   89  A    between atoms: _221  and  _224
REMARK   90  A    between atoms: _226  and  _228
REMARK   91  A    between atoms: _228  and  _229
REMARK   92  A    between atoms: _228  and  _231
REMARK   93  A    between atoms: _231  and  _232
REMARK   94  A    between atoms: _237  and  _239
REMARK   95  A    between atoms: _239  and  _240
REMARK   96  A    between atoms: _239  and  _242
REMARK   97  A    between atoms: _242  and  _243
REMARK   98  A    between atoms: _243  and  ZN_324
REMARK   99  A    between atoms: _244  and  _246
REMARK  100  A    between atoms: _246  and  _247
REMARK  101  A    between atoms: _246  and  _249
REMARK  102  A    between atoms: _249  and  _250
REMARK  103  A    between atoms: _255  and  _257
REMARK  104  A    between atoms: _257  and  _258
REMARK  105  A    between atoms: _257  and  _260
REMARK  106  A    between atoms: _260  and  _261
REMARK  107  A    between atoms: _261  and  _262
REMARK  108  A    between atoms: _267  and  _269
REMARK  109  A    between atoms: _269  and  _270
REMARK  110  A    between atoms: _269  and  _272
REMARK  111  A    between atoms: _272  and  _273
REMARK  112  A    between atoms: _276  and  _278
REMARK  113  A    between atoms: _278  and  _279
REMARK  114  A    between atoms: _278  and  _281
REMARK  115  A    between atoms: _281  and  _282
REMARK  116  A    between atoms: _288  and  _290
REMARK  117  A    between atoms: _290  and  _291
REMARK  118  A    between atoms: _291  and  _292
REMARK  119  A    between atoms: _291  and  _293
REMARK  120  A    between atoms: _293  and  _295
REMARK  121  A    between atoms: _302  and  _303
REMARK  122  A    between atoms: _307  and  _309
REMARK  123  A    between atoms: _309  and  _310
REMARK  124  A    between atoms: _312  and  _314
REMARK  125  A    between atoms: _314  and  _315
REMARK  126  A    between atoms: _314  and  _317
REMARK  127  A    between atoms: _317  and  _318
REMARK                            x       y       z     vdW  Elec       q    Type
REMARK                         _______ _______ _______ _____ _____    ______ ____
ROOT
ATOM      1  O   HOH     1      71.378   7.443 -34.750  0.00  0.00    +0.000 OA
ENDROOT
TORSDOF 0
REMARK  Name = ../refined-set-2016/4m3p/4m3p_pocket.pdb
REMARK  127 active torsions:
REMARK  status: ('A' for Active; 'I' for Inactive)
REMARK    1  A    between atoms: _1  and  _3
REMARK    2  A    between atoms: _3  and  _4
REMARK    3  A    between atoms: _3  and  _6
REMARK    4  A    between atoms: _6  and  _7
REMARK    5  A    between atoms: _10  and  _12
REMARK    6  A    between atoms: _12  and  _13
REMARK    7  A    between atoms: _15  and  _17
REMARK    8  A    between atoms: _17  and  _18
REMARK    9  A    between atoms: _20  and  _22
REMARK   10  A    between atoms: _22  and  _23
REMARK   11  A    between atoms: _22  and  _25
REMARK   12  A    between atoms: _25  and  _26
REMARK   13  A    between atoms: _32  and  _34
REMARK   14  A    between atoms: _34  and  _35
REMARK   15  A    between atoms: _34  and  _37
REMARK   16  A    between atoms: _40  and  _42
REMARK   17  A    between atoms: _42  and  _43
REMARK   18  A    between atoms: _42  and  _45
REMARK   19  A    between atoms: _45  and  _46
REMARK   20  A    between atoms: _52  and  _54
REMARK   21  A    between atoms: _54  and  _55
REMARK   22  A    between atoms: _58  and  _60
REMARK   23  A    between atoms: _60  and  _61
REMARK   24  A    between atoms: _60  and  _63
REMARK   25  A    between atoms: _63  and  _64
REMARK   26  A    between atoms: _67  and  _69
REMARK   27  A    between atoms: _69  and  _70
REMARK   28  A    between atoms: _69  and  _72
REMARK   29  A    between atoms: _72  and  _73
REMARK   30  A    between atoms: _73  and  _74
REMARK   31  A    between atoms: _77  and  _79
REMARK   32  A    between atoms: _79  and  _80
REMARK   33  A    between atoms: _79  and  _82
REMARK   34  A    between atoms: _85  and  _87
REMARK   35  A    between atoms: _87  and  _88
REMARK   36  A    between atoms: _87  and  _90
REMARK   37  A    between atoms: _90  and  _91
REMARK   38  A    between atoms: _101  and  _103
REMARK   39  A    between atoms: _103  and  _104
REMARK   40  A    between atoms: _103  and  _106
REMARK   41  A    between atoms: _106  and  _107
REMARK   42  A    between atoms: _110  and  _112
REMARK   43  A    between atoms: _112  and  _113
REMARK   44  A    between atoms: _112  and  _115
REMARK   45  A    between atoms: _115  and  _116
REMARK   46  A    between atoms: _122  and  _124
REMARK   47  A    between atoms: _124  and  _125
REMARK   48  A    between atoms: _124  and  _127
REMARK   49  A    between atoms: _127  and  _128
REMARK   50  A    between atoms: _128  and  _129
REMARK   51  A    between atoms: _134  and  _136
REMARK   52  A    between atoms: _136  and  _137
REMARK   53  A    between atoms: _136  and  _139
REMARK   54  A    between atoms: _139  and  _140
REMARK   55  A    between atoms: _143  and  _145
REMARK   56  A    between atoms: _145  and  _146
REMARK   57  A    between atoms: _145  and  _148
REMARK   58  A    between atoms: _148  and  _149
REMARK   59  A    between atoms: _155  and  _157
REMARK   60  A    between atoms: _157  and  _158
REMARK   61  A    between atoms: _157  and  _160
REMARK   62  A    between atoms: _160  and  _161
REMARK   63  A    between atoms: _164  and  _166
REMARK   64  A    between atoms: _166  and  _167
REMARK   65  A    between atoms: _169  and  _171
REMARK   66  A    between atoms: _171  and  _172
REMARK   67  A    between atoms: _171  and  _174
REMARK   68  A    between atoms: _174  and  _175
REMARK   69  A    between atoms: _177  and  _179
REMARK   70  A    between atoms: _179  and  _180
REMARK   71  A    between atoms: _179  and  _182
REMARK   72  A    between atoms: _182  and  _183
REMARK   73  A    between atoms: _186  and  _188
REMARK   74  A    between atoms: _188  and  _189
REMARK   75  A    between atoms: _188  and  _191
REMARK   76  A    between atoms: _191  and  _192
REMARK   77  A    between atoms: _192  and  _193
REMARK   78  A    between atoms: _196  and  _198
REMARK   79  A    between atoms: _198  and  _199
REMARK   80  A    between atoms: _198  and  _201
REMARK   81  A    between atoms: _201  and  _202
REMARK   82  A    between atoms: _207  and  _208
REMARK   83  A    between atoms: _210  and  _212
REMARK   84  A    between atoms: _212  and  _213
REMARK   85  A    between atoms: _212  and  _215
REMARK   86  A    between atoms: _215  and  _216
REMARK   87  A    between atoms: _219  and  _221
REMARK   88  A    between atoms: _221  and  _222
REMARK   89  A    between atoms: _221  and  _224
REMARK   90  A    between atoms: _226  and  _228
REMARK   91  A    between atoms: _228  and  _229
REMARK   92  A    between atoms: _228  and  _231
REMARK   93  A    between atoms: _231  and  _232
REMARK   94  A    between atoms: _237  and  _239
REMARK   95  A    between atoms: _239  and  _240
REMARK   96  A    between atoms: _239  and  _242
REMARK   97  A    between atoms: _242  and  _243
REMARK   98  A    between atoms: _243  and  ZN_324
REMARK   99  A    between atoms: _244  and  _246
REMARK  100  A    between atoms: _246  and  _247
REMARK  101  A    between atoms: _246  and  _249
REMARK  102  A    between atoms: _249  and  _250
REMARK  103  A    between atoms: _255  and  _257
REMARK  104  A    between atoms: _257  and  _258
REMARK  105  A    between atoms: _257  and  _260
REMARK  106  A    between atoms: _260  and  _261
REMARK  107  A    between atoms: _261  and  _262
REMARK  108  A    between atoms: _267  and  _269
REMARK  109  A    between atoms: _269  and  _270
REMARK  110  A    between atoms: _269  and  _272
REMARK  111  A    between atoms: _272  and  _273
REMARK  112  A    between atoms: _276  and  _278
REMARK  113  A    between atoms: _278  and  _279
REMARK  114  A    between atoms: _278  and  _281
REMARK  115  A    between atoms: _281  and  _282
REMARK  116  A    between atoms: _288  and  _290
REMARK  117  A    between atoms: _290  and  _291
REMARK  118  A    between atoms: _291  and  _292
REMARK  119  A    between atoms: _291  and  _293
REMARK  120  A    between atoms: _293  and  _295
REMARK  121  A    between atoms: _302  and  _303
REMARK  122  A    between atoms: _307  and  _309
REMARK  123  A    between atoms: _309  and  _310
REMARK  124  A    between atoms: _312  and  _314
REMARK  125  A    between atoms: _314  and  _315
REMARK  126  A    between atoms: _314  and  _317
REMARK  127  A    between atoms: _317  and  _318
REMARK                            x       y       z     vdW  Elec       q    Type
REMARK                         _______ _______ _______ _____ _____    ______ ____
ROOT
ATOM      1  O   HOH     1      74.801  11.816 -43.972  0.00  0.00    +0.000 OA
ENDROOT
TORSDOF 0
REMARK  Name = ../refined-set-2016/4m3p/4m3p_pocket.pdb
REMARK  127 active torsions:
REMARK  status: ('A' for Active; 'I' for Inactive)
REMARK    1  A    between atoms: _1  and  _3
REMARK    2  A    between atoms: _3  and  _4
REMARK    3  A    between atoms: _3  and  _6
REMARK    4  A    between atoms: _6  and  _7
REMARK    5  A    between atoms: _10  and  _12
REMARK    6  A    between atoms: _12  and  _13
REMARK    7  A    between atoms: _15  and  _17
REMARK    8  A    between atoms: _17  and  _18
REMARK    9  A    between atoms: _20  and  _22
REMARK   10  A    between atoms: _22  and  _23
REMARK   11  A    between atoms: _22  and  _25
REMARK   12  A    between atoms: _25  and  _26
REMARK   13  A    between atoms: _32  and  _34
REMARK   14  A    between atoms: _34  and  _35
REMARK   15  A    between atoms: _34  and  _37
REMARK   16  A    between atoms: _40  and  _42
REMARK   17  A    between atoms: _42  and  _43
REMARK   18  A    between atoms: _42  and  _45
REMARK   19  A    between atoms: _45  and  _46
REMARK   20  A    between atoms: _52  and  _54
REMARK   21  A    between atoms: _54  and  _55
REMARK   22  A    between atoms: _58  and  _60
REMARK   23  A    between atoms: _60  and  _61
REMARK   24  A    between atoms: _60  and  _63
REMARK   25  A    between atoms: _63  and  _64
REMARK   26  A    between atoms: _67  and  _69
REMARK   27  A    between atoms: _69  and  _70
REMARK   28  A    between atoms: _69  and  _72
REMARK   29  A    between atoms: _72  and  _73
REMARK   30  A    between atoms: _73  and  _74
REMARK   31  A    between atoms: _77  and  _79
REMARK   32  A    between atoms: _79  and  _80
REMARK   33  A    between atoms: _79  and  _82
REMARK   34  A    between atoms: _85  and  _87
REMARK   35  A    between atoms: _87  and  _88
REMARK   36  A    between atoms: _87  and  _90
REMARK   37  A    between atoms: _90  and  _91
REMARK   38  A    between atoms: _101  and  _103
REMARK   39  A    between atoms: _103  and  _104
REMARK   40  A    between atoms: _103  and  _106
REMARK   41  A    between atoms: _106  and  _107
REMARK   42  A    between atoms: _110  and  _112
REMARK   43  A    between atoms: _112  and  _113
REMARK   44  A    between atoms: _112  and  _115
REMARK   45  A    between atoms: _115  and  _116
REMARK   46  A    between atoms: _122  and  _124
REMARK   47  A    between atoms: _124  and  _125
REMARK   48  A    between atoms: _124  and  _127
REMARK   49  A    between atoms: _127  and  _128
REMARK   50  A    between atoms: _128  and  _129
REMARK   51  A    between atoms: _134  and  _136
REMARK   52  A    between atoms: _136  and  _137
REMARK   53  A    between atoms: _136  and  _139
REMARK   54  A    between atoms: _139  and  _140
REMARK   55  A    between atoms: _143  and  _145
REMARK   56  A    between atoms: _145  and  _146
REMARK   57  A    between atoms: _145  and  _148
REMARK   58  A    between atoms: _148  and  _149
REMARK   59  A    between atoms: _155  and  _157
REMARK   60  A    between atoms: _157  and  _158
REMARK   61  A    between atoms: _157  and  _160
REMARK   62  A    between atoms: _160  and  _161
REMARK   63  A    between atoms: _164  and  _166
REMARK   64  A    between atoms: _166  and  _167
REMARK   65  A    between atoms: _169  and  _171
REMARK   66  A    between atoms: _171  and  _172
REMARK   67  A    between atoms: _171  and  _174
REMARK   68  A    between atoms: _174  and  _175
REMARK   69  A    between atoms: _177  and  _179
REMARK   70  A    between atoms: _179  and  _180
REMARK   71  A    between atoms: _179  and  _182
REMARK   72  A    between atoms: _182  and  _183
REMARK   73  A    between atoms: _186  and  _188
REMARK   74  A    between atoms: _188  and  _189
REMARK   75  A    between atoms: _188  and  _191
REMARK   76  A    between atoms: _191  and  _192
REMARK   77  A    between atoms: _192  and  _193
REMARK   78  A    between atoms: _196  and  _198
REMARK   79  A    between atoms: _198  and  _199
REMARK   80  A    between atoms: _198  and  _201
REMARK   81  A    between atoms: _201  and  _202
REMARK   82  A    between atoms: _207  and  _208
REMARK   83  A    between atoms: _210  and  _212
REMARK   84  A    between atoms: _212  and  _213
REMARK   85  A    between atoms: _212  and  _215
REMARK   86  A    between atoms: _215  and  _216
REMARK   87  A    between atoms: _219  and  _221
REMARK   88  A    between atoms: _221  and  _222
REMARK   89  A    between atoms: _221  and  _224
REMARK   90  A    between atoms: _226  and  _228
REMARK   91  A    between atoms: _228  and  _229
REMARK   92  A    between atoms: _228  and  _231
REMARK   93  A    between atoms: _231  and  _232
REMARK   94  A    between atoms: _237  and  _239
REMARK   95  A    between atoms: _239  and  _240
REMARK   96  A    between atoms: _239  and  _242
REMARK   97  A    between atoms: _242  and  _243
REMARK   98  A    between atoms: _243  and  ZN_324
REMARK   99  A    between atoms: _244  and  _246
REMARK  100  A    between atoms: _246  and  _247
REMARK  101  A    between atoms: _246  and  _249
REMARK  102  A    between atoms: _249  and  _250
REMARK  103  A    between atoms: _255  and  _257
REMARK  104  A    between atoms: _257  and  _258
REMARK  105  A    between atoms: _257  and  _260
REMARK  106  A    between atoms: _260  and  _261
REMARK  107  A    between atoms: _261  and  _262
REMARK  108  A    between atoms: _267  and  _269
REMARK  109  A    between atoms: _269  and  _270
REMARK  110  A    between atoms: _269  and  _272
REMARK  111  A    between atoms: _272  and  _273
REMARK  112  A    between atoms: _276  and  _278
REMARK  113  A    between atoms: _278  and  _279
REMARK  114  A    between atoms: _278  and  _281
REMARK  115  A    between atoms: _281  and  _282
REMARK  116  A    between atoms: _288  and  _290
REMARK  117  A    between atoms: _290  and  _291
REMARK  118  A    between atoms: _291  and  _292
REMARK  119  A    between atoms: _291  and  _293
REMARK  120  A    between atoms: _293  and  _295
REMARK  121  A    between atoms: _302  and  _303
REMARK  122  A    between atoms: _307  and  _309
REMARK  123  A    between atoms: _309  and  _310
REMARK  124  A    between atoms: _312  and  _314
REMARK  125  A    between atoms: _314  and  _315
REMARK  126  A    between atoms: _314  and  _317
REMARK  127  A    between atoms: _317  and  _318
REMARK                            x       y       z     vdW  Elec       q    Type
REMARK                         _______ _______ _______ _____ _____    ______ ____
ROOT
ATOM      1  O   HOH     1      77.964   9.002 -39.721  0.00  0.00    +0.000 OA
ENDROOT
TORSDOF 0
REMARK  Name = ../refined-set-2016/4m3p/4m3p_pocket.pdb
REMARK  127 active torsions:
REMARK  status: ('A' for Active; 'I' for Inactive)
REMARK    1  A    between atoms: _1  and  _3
REMARK    2  A    between atoms: _3  and  _4
REMARK    3  A    between atoms: _3  and  _6
REMARK    4  A    between atoms: _6  and  _7
REMARK    5  A    between atoms: _10  and  _12
REMARK    6  A    between atoms: _12  and  _13
REMARK    7  A    between atoms: _15  and  _17
REMARK    8  A    between atoms: _17  and  _18
REMARK    9  A    between atoms: _20  and  _22
REMARK   10  A    between atoms: _22  and  _23
REMARK   11  A    between atoms: _22  and  _25
REMARK   12  A    between atoms: _25  and  _26
REMARK   13  A    between atoms: _32  and  _34
REMARK   14  A    between atoms: _34  and  _35
REMARK   15  A    between atoms: _34  and  _37
REMARK   16  A    between atoms: _40  and  _42
REMARK   17  A    between atoms: _42  and  _43
REMARK   18  A    between atoms: _42  and  _45
REMARK   19  A    between atoms: _45  and  _46
REMARK   20  A    between atoms: _52  and  _54
REMARK   21  A    between atoms: _54  and  _55
REMARK   22  A    between atoms: _58  and  _60
REMARK   23  A    between atoms: _60  and  _61
REMARK   24  A    between atoms: _60  and  _63
REMARK   25  A    between atoms: _63  and  _64
REMARK   26  A    between atoms: _67  and  _69
REMARK   27  A    between atoms: _69  and  _70
REMARK   28  A    between atoms: _69  and  _72
REMARK   29  A    between atoms: _72  and  _73
REMARK   30  A    between atoms: _73  and  _74
REMARK   31  A    between atoms: _77  and  _79
REMARK   32  A    between atoms: _79  and  _80
REMARK   33  A    between atoms: _79  and  _82
REMARK   34  A    between atoms: _85  and  _87
REMARK   35  A    between atoms: _87  and  _88
REMARK   36  A    between atoms: _87  and  _90
REMARK   37  A    between atoms: _90  and  _91
REMARK   38  A    between atoms: _101  and  _103
REMARK   39  A    between atoms: _103  and  _104
REMARK   40  A    between atoms: _103  and  _106
REMARK   41  A    between atoms: _106  and  _107
REMARK   42  A    between atoms: _110  and  _112
REMARK   43  A    between atoms: _112  and  _113
REMARK   44  A    between atoms: _112  and  _115
REMARK   45  A    between atoms: _115  and  _116
REMARK   46  A    between atoms: _122  and  _124
REMARK   47  A    between atoms: _124  and  _125
REMARK   48  A    between atoms: _124  and  _127
REMARK   49  A    between atoms: _127  and  _128
REMARK   50  A    between atoms: _128  and  _129
REMARK   51  A    between atoms: _134  and  _136
REMARK   52  A    between atoms: _136  and  _137
REMARK   53  A    between atoms: _136  and  _139
REMARK   54  A    between atoms: _139  and  _140
REMARK   55  A    between atoms: _143  and  _145
REMARK   56  A    between atoms: _145  and  _146
REMARK   57  A    between atoms: _145  and  _148
REMARK   58  A    between atoms: _148  and  _149
REMARK   59  A    between atoms: _155  and  _157
REMARK   60  A    between atoms: _157  and  _158
REMARK   61  A    between atoms: _157  and  _160
REMARK   62  A    between atoms: _160  and  _161
REMARK   63  A    between atoms: _164  and  _166
REMARK   64  A    between atoms: _166  and  _167
REMARK   65  A    between atoms: _169  and  _171
REMARK   66  A    between atoms: _171  and  _172
REMARK   67  A    between atoms: _171  and  _174
REMARK   68  A    between atoms: _174  and  _175
REMARK   69  A    between atoms: _177  and  _179
REMARK   70  A    between atoms: _179  and  _180
REMARK   71  A    between atoms: _179  and  _182
REMARK   72  A    between atoms: _182  and  _183
REMARK   73  A    between atoms: _186  and  _188
REMARK   74  A    between atoms: _188  and  _189
REMARK   75  A    between atoms: _188  and  _191
REMARK   76  A    between atoms: _191  and  _192
REMARK   77  A    between atoms: _192  and  _193
REMARK   78  A    between atoms: _196  and  _198
REMARK   79  A    between atoms: _198  and  _199
REMARK   80  A    between atoms: _198  and  _201
REMARK   81  A    between atoms: _201  and  _202
REMARK   82  A    between atoms: _207  and  _208
REMARK   83  A    between atoms: _210  and  _212
REMARK   84  A    between atoms: _212  and  _213
REMARK   85  A    between atoms: _212  and  _215
REMARK   86  A    between atoms: _215  and  _216
REMARK   87  A    between atoms: _219  and  _221
REMARK   88  A    between atoms: _221  and  _222
REMARK   89  A    between atoms: _221  and  _224
REMARK   90  A    between atoms: _226  and  _228
REMARK   91  A    between atoms: _228  and  _229
REMARK   92  A    between atoms: _228  and  _231
REMARK   93  A    between atoms: _231  and  _232
REMARK   94  A    between atoms: _237  and  _239
REMARK   95  A    between atoms: _239  and  _240
REMARK   96  A    between atoms: _239  and  _242
REMARK   97  A    between atoms: _242  and  _243
REMARK   98  A    between atoms: _243  and  ZN_324
REMARK   99  A    between atoms: _244  and  _246
REMARK  100  A    between atoms: _246  and  _247
REMARK  101  A    between atoms: _246  and  _249
REMARK  102  A    between atoms: _249  and  _250
REMARK  103  A    between atoms: _255  and  _257
REMARK  104  A    between atoms: _257  and  _258
REMARK  105  A    between atoms: _257  and  _260
REMARK  106  A    between atoms: _260  and  _261
REMARK  107  A    between atoms: _261  and  _262
REMARK  108  A    between atoms: _267  and  _269
REMARK  109  A    between atoms: _269  and  _270
REMARK  110  A    between atoms: _269  and  _272
REMARK  111  A    between atoms: _272  and  _273
REMARK  112  A    between atoms: _276  and  _278
REMARK  113  A    between atoms: _278  and  _279
REMARK  114  A    between atoms: _278  and  _281
REMARK  115  A    between atoms: _281  and  _282
REMARK  116  A    between atoms: _288  and  _290
REMARK  117  A    between atoms: _290  and  _291
REMARK  118  A    between atoms: _291  and  _292
REMARK  119  A    between atoms: _291  and  _293
REMARK  120  A    between atoms: _293  and  _295
REMARK  121  A    between atoms: _302  and  _303
REMARK  122  A    between atoms: _307  and  _309
REMARK  123  A    between atoms: _309  and  _310
REMARK  124  A    between atoms: _312  and  _314
REMARK  125  A    between atoms: _314  and  _315
REMARK  126  A    between atoms: _314  and  _317
REMARK  127  A    between atoms: _317  and  _318
REMARK                            x       y       z     vdW  Elec       q    Type
REMARK                         _______ _______ _______ _____ _____    ______ ____
ROOT
ATOM      1  O   HOH     1      80.148  13.613 -39.403  0.00  0.00    +0.000 OA
ENDROOT
TORSDOF 0
REMARK  Name = ../refined-set-2016/4m3p/4m3p_pocket.pdb
REMARK  127 active torsions:
REMARK  status: ('A' for Active; 'I' for Inactive)
REMARK    1  A    between atoms: _1  and  _3
REMARK    2  A    between atoms: _3  and  _4
REMARK    3  A    between atoms: _3  and  _6
REMARK    4  A    between atoms: _6  and  _7
REMARK    5  A    between atoms: _10  and  _12
REMARK    6  A    between atoms: _12  and  _13
REMARK    7  A    between atoms: _15  and  _17
REMARK    8  A    between atoms: _17  and  _18
REMARK    9  A    between atoms: _20  and  _22
REMARK   10  A    between atoms: _22  and  _23
REMARK   11  A    between atoms: _22  and  _25
REMARK   12  A    between atoms: _25  and  _26
REMARK   13  A    between atoms: _32  and  _34
REMARK   14  A    between atoms: _34  and  _35
REMARK   15  A    between atoms: _34  and  _37
REMARK   16  A    between atoms: _40  and  _42
REMARK   17  A    between atoms: _42  and  _43
REMARK   18  A    between atoms: _42  and  _45
REMARK   19  A    between atoms: _45  and  _46
REMARK   20  A    between atoms: _52  and  _54
REMARK   21  A    between atoms: _54  and  _55
REMARK   22  A    between atoms: _58  and  _60
REMARK   23  A    between atoms: _60  and  _61
REMARK   24  A    between atoms: _60  and  _63
REMARK   25  A    between atoms: _63  and  _64
REMARK   26  A    between atoms: _67  and  _69
REMARK   27  A    between atoms: _69  and  _70
REMARK   28  A    between atoms: _69  and  _72
REMARK   29  A    between atoms: _72  and  _73
REMARK   30  A    between atoms: _73  and  _74
REMARK   31  A    between atoms: _77  and  _79
REMARK   32  A    between atoms: _79  and  _80
REMARK   33  A    between atoms: _79  and  _82
REMARK   34  A    between atoms: _85  and  _87
REMARK   35  A    between atoms: _87  and  _88
REMARK   36  A    between atoms: _87  and  _90
REMARK   37  A    between atoms: _90  and  _91
REMARK   38  A    between atoms: _101  and  _103
REMARK   39  A    between atoms: _103  and  _104
REMARK   40  A    between atoms: _103  and  _106
REMARK   41  A    between atoms: _106  and  _107
REMARK   42  A    between atoms: _110  and  _112
REMARK   43  A    between atoms: _112  and  _113
REMARK   44  A    between atoms: _112  and  _115
REMARK   45  A    between atoms: _115  and  _116
REMARK   46  A    between atoms: _122  and  _124
REMARK   47  A    between atoms: _124  and  _125
REMARK   48  A    between atoms: _124  and  _127
REMARK   49  A    between atoms: _127  and  _128
REMARK   50  A    between atoms: _128  and  _129
REMARK   51  A    between atoms: _134  and  _136
REMARK   52  A    between atoms: _136  and  _137
REMARK   53  A    between atoms: _136  and  _139
REMARK   54  A    between atoms: _139  and  _140
REMARK   55  A    between atoms: _143  and  _145
REMARK   56  A    between atoms: _145  and  _146
REMARK   57  A    between atoms: _145  and  _148
REMARK   58  A    between atoms: _148  and  _149
REMARK   59  A    between atoms: _155  and  _157
REMARK   60  A    between atoms: _157  and  _158
REMARK   61  A    between atoms: _157  and  _160
REMARK   62  A    between atoms: _160  and  _161
REMARK   63  A    between atoms: _164  and  _166
REMARK   64  A    between atoms: _166  and  _167
REMARK   65  A    between atoms: _169  and  _171
REMARK   66  A    between atoms: _171  and  _172
REMARK   67  A    between atoms: _171  and  _174
REMARK   68  A    between atoms: _174  and  _175
REMARK   69  A    between atoms: _177  and  _179
REMARK   70  A    between atoms: _179  and  _180
REMARK   71  A    between atoms: _179  and  _182
REMARK   72  A    between atoms: _182  and  _183
REMARK   73  A    between atoms: _186  and  _188
REMARK   74  A    between atoms: _188  and  _189
REMARK   75  A    between atoms: _188  and  _191
REMARK   76  A    between atoms: _191  and  _192
REMARK   77  A    between atoms: _192  and  _193
REMARK   78  A    between atoms: _196  and  _198
REMARK   79  A    between atoms: _198  and  _199
REMARK   80  A    between atoms: _198  and  _201
REMARK   81  A    between atoms: _201  and  _202
REMARK   82  A    between atoms: _207  and  _208
REMARK   83  A    between atoms: _210  and  _212
REMARK   84  A    between atoms: _212  and  _213
REMARK   85  A    between atoms: _212  and  _215
REMARK   86  A    between atoms: _215  and  _216
REMARK   87  A    between atoms: _219  and  _221
REMARK   88  A    between atoms: _221  and  _222
REMARK   89  A    between atoms: _221  and  _224
REMARK   90  A    between atoms: _226  and  _228
REMARK   91  A    between atoms: _228  and  _229
REMARK   92  A    between atoms: _228  and  _231
REMARK   93  A    between atoms: _231  and  _232
REMARK   94  A    between atoms: _237  and  _239
REMARK   95  A    between atoms: _239  and  _240
REMARK   96  A    between atoms: _239  and  _242
REMARK   97  A    between atoms: _242  and  _243
REMARK   98  A    between atoms: _243  and  ZN_324
REMARK   99  A    between atoms: _244  and  _246
REMARK  100  A    between atoms: _246  and  _247
REMARK  101  A    between atoms: _246  and  _249
REMARK  102  A    between atoms: _249  and  _250
REMARK  103  A    between atoms: _255  and  _257
REMARK  104  A    between atoms: _257  and  _258
REMARK  105  A    between atoms: _257  and  _260
REMARK  106  A    between atoms: _260  and  _261
REMARK  107  A    between atoms: _261  and  _262
REMARK  108  A    between atoms: _267  and  _269
REMARK  109  A    between atoms: _269  and  _270
REMARK  110  A    between atoms: _269  and  _272
REMARK  111  A    between atoms: _272  and  _273
REMARK  112  A    between atoms: _276  and  _278
REMARK  113  A    between atoms: _278  and  _279
REMARK  114  A    between atoms: _278  and  _281
REMARK  115  A    between atoms: _281  and  _282
REMARK  116  A    between atoms: _288  and  _290
REMARK  117  A    between atoms: _290  and  _291
REMARK  118  A    between atoms: _291  and  _292
REMARK  119  A    between atoms: _291  and  _293
REMARK  120  A    between atoms: _293  and  _295
REMARK  121  A    between atoms: _302  and  _303
REMARK  122  A    between atoms: _307  and  _309
REMARK  123  A    between atoms: _309  and  _310
REMARK  124  A    between atoms: _312  and  _314
REMARK  125  A    between atoms: _314  and  _315
REMARK  126  A    between atoms: _314  and  _317
REMARK  127  A    between atoms: _317  and  _318
REMARK                            x       y       z     vdW  Elec       q    Type
REMARK                         _______ _______ _______ _____ _____    ______ ____
ROOT
ATOM      1  O   HOH     1      83.854  10.284 -35.759  0.00  0.00    +0.000 OA
ENDROOT
TORSDOF 0
REMARK  Name = ../refined-set-2016/4m3p/4m3p_pocket.pdb
REMARK  127 active torsions:
REMARK  status: ('A' for Active; 'I' for Inactive)
REMARK    1  A    between atoms: _1  and  _3
REMARK    2  A    between atoms: _3  and  _4
REMARK    3  A    between atoms: _3  and  _6
REMARK    4  A    between atoms: _6  and  _7
REMARK    5  A    between atoms: _10  and  _12
REMARK    6  A    between atoms: _12  and  _13
REMARK    7  A    between atoms: _15  and  _17
REMARK    8  A    between atoms: _17  and  _18
REMARK    9  A    between atoms: _20  and  _22
REMARK   10  A    between atoms: _22  and  _23
REMARK   11  A    between atoms: _22  and  _25
REMARK   12  A    between atoms: _25  and  _26
REMARK   13  A    between atoms: _32  and  _34
REMARK   14  A    between atoms: _34  and  _35
REMARK   15  A    between atoms: _34  and  _37
REMARK   16  A    between atoms: _40  and  _42
REMARK   17  A    between atoms: _42  and  _43
REMARK   18  A    between atoms: _42  and  _45
REMARK   19  A    between atoms: _45  and  _46
REMARK   20  A    between atoms: _52  and  _54
REMARK   21  A    between atoms: _54  and  _55
REMARK   22  A    between atoms: _58  and  _60
REMARK   23  A    between atoms: _60  and  _61
REMARK   24  A    between atoms: _60  and  _63
REMARK   25  A    between atoms: _63  and  _64
REMARK   26  A    between atoms: _67  and  _69
REMARK   27  A    between atoms: _69  and  _70
REMARK   28  A    between atoms: _69  and  _72
REMARK   29  A    between atoms: _72  and  _73
REMARK   30  A    between atoms: _73  and  _74
REMARK   31  A    between atoms: _77  and  _79
REMARK   32  A    between atoms: _79  and  _80
REMARK   33  A    between atoms: _79  and  _82
REMARK   34  A    between atoms: _85  and  _87
REMARK   35  A    between atoms: _87  and  _88
REMARK   36  A    between atoms: _87  and  _90
REMARK   37  A    between atoms: _90  and  _91
REMARK   38  A    between atoms: _101  and  _103
REMARK   39  A    between atoms: _103  and  _104
REMARK   40  A    between atoms: _103  and  _106
REMARK   41  A    between atoms: _106  and  _107
REMARK   42  A    between atoms: _110  and  _112
REMARK   43  A    between atoms: _112  and  _113
REMARK   44  A    between atoms: _112  and  _115
REMARK   45  A    between atoms: _115  and  _116
REMARK   46  A    between atoms: _122  and  _124
REMARK   47  A    between atoms: _124  and  _125
REMARK   48  A    between atoms: _124  and  _127
REMARK   49  A    between atoms: _127  and  _128
REMARK   50  A    between atoms: _128  and  _129
REMARK   51  A    between atoms: _134  and  _136
REMARK   52  A    between atoms: _136  and  _137
REMARK   53  A    between atoms: _136  and  _139
REMARK   54  A    between atoms: _139  and  _140
REMARK   55  A    between atoms: _143  and  _145
REMARK   56  A    between atoms: _145  and  _146
REMARK   57  A    between atoms: _145  and  _148
REMARK   58  A    between atoms: _148  and  _149
REMARK   59  A    between atoms: _155  and  _157
REMARK   60  A    between atoms: _157  and  _158
REMARK   61  A    between atoms: _157  and  _160
REMARK   62  A    between atoms: _160  and  _161
REMARK   63  A    between atoms: _164  and  _166
REMARK   64  A    between atoms: _166  and  _167
REMARK   65  A    between atoms: _169  and  _171
REMARK   66  A    between atoms: _171  and  _172
REMARK   67  A    between atoms: _171  and  _174
REMARK   68  A    between atoms: _174  and  _175
REMARK   69  A    between atoms: _177  and  _179
REMARK   70  A    between atoms: _179  and  _180
REMARK   71  A    between atoms: _179  and  _182
REMARK   72  A    between atoms: _182  and  _183
REMARK   73  A    between atoms: _186  and  _188
REMARK   74  A    between atoms: _188  and  _189
REMARK   75  A    between atoms: _188  and  _191
REMARK   76  A    between atoms: _191  and  _192
REMARK   77  A    between atoms: _192  and  _193
REMARK   78  A    between atoms: _196  and  _198
REMARK   79  A    between atoms: _198  and  _199
REMARK   80  A    between atoms: _198  and  _201
REMARK   81  A    between atoms: _201  and  _202
REMARK   82  A    between atoms: _207  and  _208
REMARK   83  A    between atoms: _210  and  _212
REMARK   84  A    between atoms: _212  and  _213
REMARK   85  A    between atoms: _212  and  _215
REMARK   86  A    between atoms: _215  and  _216
REMARK   87  A    between atoms: _219  and  _221
REMARK   88  A    between atoms: _221  and  _222
REMARK   89  A    between atoms: _221  and  _224
REMARK   90  A    between atoms: _226  and  _228
REMARK   91  A    between atoms: _228  and  _229
REMARK   92  A    between atoms: _228  and  _231
REMARK   93  A    between atoms: _231  and  _232
REMARK   94  A    between atoms: _237  and  _239
REMARK   95  A    between atoms: _239  and  _240
REMARK   96  A    between atoms: _239  and  _242
REMARK   97  A    between atoms: _242  and  _243
REMARK   98  A    between atoms: _243  and  ZN_324
REMARK   99  A    between atoms: _244  and  _246
REMARK  100  A    between atoms: _246  and  _247
REMARK  101  A    between atoms: _246  and  _249
REMARK  102  A    between atoms: _249  and  _250
REMARK  103  A    between atoms: _255  and  _257
REMARK  104  A    between atoms: _257  and  _258
REMARK  105  A    between atoms: _257  and  _260
REMARK  106  A    between atoms: _260  and  _261
REMARK  107  A    between atoms: _261  and  _262
REMARK  108  A    between atoms: _267  and  _269
REMARK  109  A    between atoms: _269  and  _270
REMARK  110  A    between atoms: _269  and  _272
REMARK  111  A    between atoms: _272  and  _273
REMARK  112  A    between atoms: _276  and  _278
REMARK  113  A    between atoms: _278  and  _279
REMARK  114  A    between atoms: _278  and  _281
REMARK  115  A    between atoms: _281  and  _282
REMARK  116  A    between atoms: _288  and  _290
REMARK  117  A    between atoms: _290  and  _291
REMARK  118  A    between atoms: _291  and  _292
REMARK  119  A    between atoms: _291  and  _293
REMARK  120  A    between atoms: _293  and  _295
REMARK  121  A    between atoms: _302  and  _303
REMARK  122  A    between atoms: _307  and  _309
REMARK  123  A    between atoms: _309  and  _310
REMARK  124  A    between atoms: _312  and  _314
REMARK  125  A    between atoms: _314  and  _315
REMARK  126  A    between atoms: _314  and  _317
REMARK  127  A    between atoms: _317  and  _318
REMARK                            x       y       z     vdW  Elec       q    Type
REMARK                         _______ _______ _______ _____ _____    ______ ____
ROOT
ATOM      1  O   HOH     1      82.491   6.493 -42.611  0.00  0.00    +0.000 OA
ENDROOT
TORSDOF 0
REMARK  Name = ../refined-set-2016/4m3p/4m3p_pocket.pdb
REMARK  127 active torsions:
REMARK  status: ('A' for Active; 'I' for Inactive)
REMARK    1  A    between atoms: _1  and  _3
REMARK    2  A    between atoms: _3  and  _4
REMARK    3  A    between atoms: _3  and  _6
REMARK    4  A    between atoms: _6  and  _7
REMARK    5  A    between atoms: _10  and  _12
REMARK    6  A    between atoms: _12  and  _13
REMARK    7  A    between atoms: _15  and  _17
REMARK    8  A    between atoms: _17  and  _18
REMARK    9  A    between atoms: _20  and  _22
REMARK   10  A    between atoms: _22  and  _23
REMARK   11  A    between atoms: _22  and  _25
REMARK   12  A    between atoms: _25  and  _26
REMARK   13  A    between atoms: _32  and  _34
REMARK   14  A    between atoms: _34  and  _35
REMARK   15  A    between atoms: _34  and  _37
REMARK   16  A    between atoms: _40  and  _42
REMARK   17  A    between atoms: _42  and  _43
REMARK   18  A    between atoms: _42  and  _45
REMARK   19  A    between atoms: _45  and  _46
REMARK   20  A    between atoms: _52  and  _54
REMARK   21  A    between atoms: _54  and  _55
REMARK   22  A    between atoms: _58  and  _60
REMARK   23  A    between atoms: _60  and  _61
REMARK   24  A    between atoms: _60  and  _63
REMARK   25  A    between atoms: _63  and  _64
REMARK   26  A    between atoms: _67  and  _69
REMARK   27  A    between atoms: _69  and  _70
REMARK   28  A    between atoms: _69  and  _72
REMARK   29  A    between atoms: _72  and  _73
REMARK   30  A    between atoms: _73  and  _74
REMARK   31  A    between atoms: _77  and  _79
REMARK   32  A    between atoms: _79  and  _80
REMARK   33  A    between atoms: _79  and  _82
REMARK   34  A    between atoms: _85  and  _87
REMARK   35  A    between atoms: _87  and  _88
REMARK   36  A    between atoms: _87  and  _90
REMARK   37  A    between atoms: _90  and  _91
REMARK   38  A    between atoms: _101  and  _103
REMARK   39  A    between atoms: _103  and  _104
REMARK   40  A    between atoms: _103  and  _106
REMARK   41  A    between atoms: _106  and  _107
REMARK   42  A    between atoms: _110  and  _112
REMARK   43  A    between atoms: _112  and  _113
REMARK   44  A    between atoms: _112  and  _115
REMARK   45  A    between atoms: _115  and  _116
REMARK   46  A    between atoms: _122  and  _124
REMARK   47  A    between atoms: _124  and  _125
REMARK   48  A    between atoms: _124  and  _127
REMARK   49  A    between atoms: _127  and  _128
REMARK   50  A    between atoms: _128  and  _129
REMARK   51  A    between atoms: _134  and  _136
REMARK   52  A    between atoms: _136  and  _137
REMARK   53  A    between atoms: _136  and  _139
REMARK   54  A    between atoms: _139  and  _140
REMARK   55  A    between atoms: _143  and  _145
REMARK   56  A    between atoms: _145  and  _146
REMARK   57  A    between atoms: _145  and  _148
REMARK   58  A    between atoms: _148  and  _149
REMARK   59  A    between atoms: _155  and  _157
REMARK   60  A    between atoms: _157  and  _158
REMARK   61  A    between atoms: _157  and  _160
REMARK   62  A    between atoms: _160  and  _161
REMARK   63  A    between atoms: _164  and  _166
REMARK   64  A    between atoms: _166  and  _167
REMARK   65  A    between atoms: _169  and  _171
REMARK   66  A    between atoms: _171  and  _172
REMARK   67  A    between atoms: _171  and  _174
REMARK   68  A    between atoms: _174  and  _175
REMARK   69  A    between atoms: _177  and  _179
REMARK   70  A    between atoms: _179  and  _180
REMARK   71  A    between atoms: _179  and  _182
REMARK   72  A    between atoms: _182  and  _183
REMARK   73  A    between atoms: _186  and  _188
REMARK   74  A    between atoms: _188  and  _189
REMARK   75  A    between atoms: _188  and  _191
REMARK   76  A    between atoms: _191  and  _192
REMARK   77  A    between atoms: _192  and  _193
REMARK   78  A    between atoms: _196  and  _198
REMARK   79  A    between atoms: _198  and  _199
REMARK   80  A    between atoms: _198  and  _201
REMARK   81  A    between atoms: _201  and  _202
REMARK   82  A    between atoms: _207  and  _208
REMARK   83  A    between atoms: _210  and  _212
REMARK   84  A    between atoms: _212  and  _213
REMARK   85  A    between atoms: _212  and  _215
REMARK   86  A    between atoms: _215  and  _216
REMARK   87  A    between atoms: _219  and  _221
REMARK   88  A    between atoms: _221  and  _222
REMARK   89  A    between atoms: _221  and  _224
REMARK   90  A    between atoms: _226  and  _228
REMARK   91  A    between atoms: _228  and  _229
REMARK   92  A    between atoms: _228  and  _231
REMARK   93  A    between atoms: _231  and  _232
REMARK   94  A    between atoms: _237  and  _239
REMARK   95  A    between atoms: _239  and  _240
REMARK   96  A    between atoms: _239  and  _242
REMARK   97  A    between atoms: _242  and  _243
REMARK   98  A    between atoms: _243  and  ZN_324
REMARK   99  A    between atoms: _244  and  _246
REMARK  100  A    between atoms: _246  and  _247
REMARK  101  A    between atoms: _246  and  _249
REMARK  102  A    between atoms: _249  and  _250
REMARK  103  A    between atoms: _255  and  _257
REMARK  104  A    between atoms: _257  and  _258
REMARK  105  A    between atoms: _257  and  _260
REMARK  106  A    between atoms: _260  and  _261
REMARK  107  A    between atoms: _261  and  _262
REMARK  108  A    between atoms: _267  and  _269
REMARK  109  A    between atoms: _269  and  _270
REMARK  110  A    between atoms: _269  and  _272
REMARK  111  A    between atoms: _272  and  _273
REMARK  112  A    between atoms: _276  and  _278
REMARK  113  A    between atoms: _278  and  _279
REMARK  114  A    between atoms: _278  and  _281
REMARK  115  A    between atoms: _281  and  _282
REMARK  116  A    between atoms: _288  and  _290
REMARK  117  A    between atoms: _290  and  _291
REMARK  118  A    between atoms: _291  and  _292
REMARK  119  A    between atoms: _291  and  _293
REMARK  120  A    between atoms: _293  and  _295
REMARK  121  A    between atoms: _302  and  _303
REMARK  122  A    between atoms: _307  and  _309
REMARK  123  A    between atoms: _309  and  _310
REMARK  124  A    between atoms: _312  and  _314
REMARK  125  A    between atoms: _314  and  _315
REMARK  126  A    between atoms: _314  and  _317
REMARK  127  A    between atoms: _317  and  _318
REMARK                            x       y       z     vdW  Elec       q    Type
REMARK                         _______ _______ _______ _____ _____    ______ ____
ROOT
ATOM      1  O   HOH     1      77.206   6.951 -42.754  0.00  0.00    +0.000 OA
ENDROOT
TORSDOF 0
REMARK  Name = ../refined-set-2016/4m3p/4m3p_pocket.pdb
REMARK  127 active torsions:
REMARK  status: ('A' for Active; 'I' for Inactive)
REMARK    1  A    between atoms: _1  and  _3
REMARK    2  A    between atoms: _3  and  _4
REMARK    3  A    between atoms: _3  and  _6
REMARK    4  A    between atoms: _6  and  _7
REMARK    5  A    between atoms: _10  and  _12
REMARK    6  A    between atoms: _12  and  _13
REMARK    7  A    between atoms: _15  and  _17
REMARK    8  A    between atoms: _17  and  _18
REMARK    9  A    between atoms: _20  and  _22
REMARK   10  A    between atoms: _22  and  _23
REMARK   11  A    between atoms: _22  and  _25
REMARK   12  A    between atoms: _25  and  _26
REMARK   13  A    between atoms: _32  and  _34
REMARK   14  A    between atoms: _34  and  _35
REMARK   15  A    between atoms: _34  and  _37
REMARK   16  A    between atoms: _40  and  _42
REMARK   17  A    between atoms: _42  and  _43
REMARK   18  A    between atoms: _42  and  _45
REMARK   19  A    between atoms: _45  and  _46
REMARK   20  A    between atoms: _52  and  _54
REMARK   21  A    between atoms: _54  and  _55
REMARK   22  A    between atoms: _58  and  _60
REMARK   23  A    between atoms: _60  and  _61
REMARK   24  A    between atoms: _60  and  _63
REMARK   25  A    between atoms: _63  and  _64
REMARK   26  A    between atoms: _67  and  _69
REMARK   27  A    between atoms: _69  and  _70
REMARK   28  A    between atoms: _69  and  _72
REMARK   29  A    between atoms: _72  and  _73
REMARK   30  A    between atoms: _73  and  _74
REMARK   31  A    between atoms: _77  and  _79
REMARK   32  A    between atoms: _79  and  _80
REMARK   33  A    between atoms: _79  and  _82
REMARK   34  A    between atoms: _85  and  _87
REMARK   35  A    between atoms: _87  and  _88
REMARK   36  A    between atoms: _87  and  _90
REMARK   37  A    between atoms: _90  and  _91
REMARK   38  A    between atoms: _101  and  _103
REMARK   39  A    between atoms: _103  and  _104
REMARK   40  A    between atoms: _103  and  _106
REMARK   41  A    between atoms: _106  and  _107
REMARK   42  A    between atoms: _110  and  _112
REMARK   43  A    between atoms: _112  and  _113
REMARK   44  A    between atoms: _112  and  _115
REMARK   45  A    between atoms: _115  and  _116
REMARK   46  A    between atoms: _122  and  _124
REMARK   47  A    between atoms: _124  and  _125
REMARK   48  A    between atoms: _124  and  _127
REMARK   49  A    between atoms: _127  and  _128
REMARK   50  A    between atoms: _128  and  _129
REMARK   51  A    between atoms: _134  and  _136
REMARK   52  A    between atoms: _136  and  _137
REMARK   53  A    between atoms: _136  and  _139
REMARK   54  A    between atoms: _139  and  _140
REMARK   55  A    between atoms: _143  and  _145
REMARK   56  A    between atoms: _145  and  _146
REMARK   57  A    between atoms: _145  and  _148
REMARK   58  A    between atoms: _148  and  _149
REMARK   59  A    between atoms: _155  and  _157
REMARK   60  A    between atoms: _157  and  _158
REMARK   61  A    between atoms: _157  and  _160
REMARK   62  A    between atoms: _160  and  _161
REMARK   63  A    between atoms: _164  and  _166
REMARK   64  A    between atoms: _166  and  _167
REMARK   65  A    between atoms: _169  and  _171
REMARK   66  A    between atoms: _171  and  _172
REMARK   67  A    between atoms: _171  and  _174
REMARK   68  A    between atoms: _174  and  _175
REMARK   69  A    between atoms: _177  and  _179
REMARK   70  A    between atoms: _179  and  _180
REMARK   71  A    between atoms: _179  and  _182
REMARK   72  A    between atoms: _182  and  _183
REMARK   73  A    between atoms: _186  and  _188
REMARK   74  A    between atoms: _188  and  _189
REMARK   75  A    between atoms: _188  and  _191
REMARK   76  A    between atoms: _191  and  _192
REMARK   77  A    between atoms: _192  and  _193
REMARK   78  A    between atoms: _196  and  _198
REMARK   79  A    between atoms: _198  and  _199
REMARK   80  A    between atoms: _198  and  _201
REMARK   81  A    between atoms: _201  and  _202
REMARK   82  A    between atoms: _207  and  _208
REMARK   83  A    between atoms: _210  and  _212
REMARK   84  A    between atoms: _212  and  _213
REMARK   85  A    between atoms: _212  and  _215
REMARK   86  A    between atoms: _215  and  _216
REMARK   87  A    between atoms: _219  and  _221
REMARK   88  A    between atoms: _221  and  _222
REMARK   89  A    between atoms: _221  and  _224
REMARK   90  A    between atoms: _226  and  _228
REMARK   91  A    between atoms: _228  and  _229
REMARK   92  A    between atoms: _228  and  _231
REMARK   93  A    between atoms: _231  and  _232
REMARK   94  A    between atoms: _237  and  _239
REMARK   95  A    between atoms: _239  and  _240
REMARK   96  A    between atoms: _239  and  _242
REMARK   97  A    between atoms: _242  and  _243
REMARK   98  A    between atoms: _243  and  ZN_324
REMARK   99  A    between atoms: _244  and  _246
REMARK  100  A    between atoms: _246  and  _247
REMARK  101  A    between atoms: _246  and  _249
REMARK  102  A    between atoms: _249  and  _250
REMARK  103  A    between atoms: _255  and  _257
REMARK  104  A    between atoms: _257  and  _258
REMARK  105  A    between atoms: _257  and  _260
REMARK  106  A    between atoms: _260  and  _261
REMARK  107  A    between atoms: _261  and  _262
REMARK  108  A    between atoms: _267  and  _269
REMARK  109  A    between atoms: _269  and  _270
REMARK  110  A    between atoms: _269  and  _272
REMARK  111  A    between atoms: _272  and  _273
REMARK  112  A    between atoms: _276  and  _278
REMARK  113  A    between atoms: _278  and  _279
REMARK  114  A    between atoms: _278  and  _281
REMARK  115  A    between atoms: _281  and  _282
REMARK  116  A    between atoms: _288  and  _290
REMARK  117  A    between atoms: _290  and  _291
REMARK  118  A    between atoms: _291  and  _292
REMARK  119  A    between atoms: _291  and  _293
REMARK  120  A    between atoms: _293  and  _295
REMARK  121  A    between atoms: _302  and  _303
REMARK  122  A    between atoms: _307  and  _309
REMARK  123  A    between atoms: _309  and  _310
REMARK  124  A    between atoms: _312  and  _314
REMARK  125  A    between atoms: _314  and  _315
REMARK  126  A    between atoms: _314  and  _317
REMARK  127  A    between atoms: _317  and  _318
REMARK                            x       y       z     vdW  Elec       q    Type
REMARK                         _______ _______ _______ _____ _____    ______ ____
ROOT
ATOM      1  O   HOH     1      79.147   5.473 -41.185  0.00  0.00    +0.000 OA
ENDROOT
TORSDOF 0
REMARK  Name = ../refined-set-2016/4m3p/4m3p_pocket.pdb
REMARK  127 active torsions:
REMARK  status: ('A' for Active; 'I' for Inactive)
REMARK    1  A    between atoms: _1  and  _3
REMARK    2  A    between atoms: _3  and  _4
REMARK    3  A    between atoms: _3  and  _6
REMARK    4  A    between atoms: _6  and  _7
REMARK    5  A    between atoms: _10  and  _12
REMARK    6  A    between atoms: _12  and  _13
REMARK    7  A    between atoms: _15  and  _17
REMARK    8  A    between atoms: _17  and  _18
REMARK    9  A    between atoms: _20  and  _22
REMARK   10  A    between atoms: _22  and  _23
REMARK   11  A    between atoms: _22  and  _25
REMARK   12  A    between atoms: _25  and  _26
REMARK   13  A    between atoms: _32  and  _34
REMARK   14  A    between atoms: _34  and  _35
REMARK   15  A    between atoms: _34  and  _37
REMARK   16  A    between atoms: _40  and  _42
REMARK   17  A    between atoms: _42  and  _43
REMARK   18  A    between atoms: _42  and  _45
REMARK   19  A    between atoms: _45  and  _46
REMARK   20  A    between atoms: _52  and  _54
REMARK   21  A    between atoms: _54  and  _55
REMARK   22  A    between atoms: _58  and  _60
REMARK   23  A    between atoms: _60  and  _61
REMARK   24  A    between atoms: _60  and  _63
REMARK   25  A    between atoms: _63  and  _64
REMARK   26  A    between atoms: _67  and  _69
REMARK   27  A    between atoms: _69  and  _70
REMARK   28  A    between atoms: _69  and  _72
REMARK   29  A    between atoms: _72  and  _73
REMARK   30  A    between atoms: _73  and  _74
REMARK   31  A    between atoms: _77  and  _79
REMARK   32  A    between atoms: _79  and  _80
REMARK   33  A    between atoms: _79  and  _82
REMARK   34  A    between atoms: _85  and  _87
REMARK   35  A    between atoms: _87  and  _88
REMARK   36  A    between atoms: _87  and  _90
REMARK   37  A    between atoms: _90  and  _91
REMARK   38  A    between atoms: _101  and  _103
REMARK   39  A    between atoms: _103  and  _104
REMARK   40  A    between atoms: _103  and  _106
REMARK   41  A    between atoms: _106  and  _107
REMARK   42  A    between atoms: _110  and  _112
REMARK   43  A    between atoms: _112  and  _113
REMARK   44  A    between atoms: _112  and  _115
REMARK   45  A    between atoms: _115  and  _116
REMARK   46  A    between atoms: _122  and  _124
REMARK   47  A    between atoms: _124  and  _125
REMARK   48  A    between atoms: _124  and  _127
REMARK   49  A    between atoms: _127  and  _128
REMARK   50  A    between atoms: _128  and  _129
REMARK   51  A    between atoms: _134  and  _136
REMARK   52  A    between atoms: _136  and  _137
REMARK   53  A    between atoms: _136  and  _139
REMARK   54  A    between atoms: _139  and  _140
REMARK   55  A    between atoms: _143  and  _145
REMARK   56  A    between atoms: _145  and  _146
REMARK   57  A    between atoms: _145  and  _148
REMARK   58  A    between atoms: _148  and  _149
REMARK   59  A    between atoms: _155  and  _157
REMARK   60  A    between atoms: _157  and  _158
REMARK   61  A    between atoms: _157  and  _160
REMARK   62  A    between atoms: _160  and  _161
REMARK   63  A    between atoms: _164  and  _166
REMARK   64  A    between atoms: _166  and  _167
REMARK   65  A    between atoms: _169  and  _171
REMARK   66  A    between atoms: _171  and  _172
REMARK   67  A    between atoms: _171  and  _174
REMARK   68  A    between atoms: _174  and  _175
REMARK   69  A    between atoms: _177  and  _179
REMARK   70  A    between atoms: _179  and  _180
REMARK   71  A    between atoms: _179  and  _182
REMARK   72  A    between atoms: _182  and  _183
REMARK   73  A    between atoms: _186  and  _188
REMARK   74  A    between atoms: _188  and  _189
REMARK   75  A    between atoms: _188  and  _191
REMARK   76  A    between atoms: _191  and  _192
REMARK   77  A    between atoms: _192  and  _193
REMARK   78  A    between atoms: _196  and  _198
REMARK   79  A    between atoms: _198  and  _199
REMARK   80  A    between atoms: _198  and  _201
REMARK   81  A    between atoms: _201  and  _202
REMARK   82  A    between atoms: _207  and  _208
REMARK   83  A    between atoms: _210  and  _212
REMARK   84  A    between atoms: _212  and  _213
REMARK   85  A    between atoms: _212  and  _215
REMARK   86  A    between atoms: _215  and  _216
REMARK   87  A    between atoms: _219  and  _221
REMARK   88  A    between atoms: _221  and  _222
REMARK   89  A    between atoms: _221  and  _224
REMARK   90  A    between atoms: _226  and  _228
REMARK   91  A    between atoms: _228  and  _229
REMARK   92  A    between atoms: _228  and  _231
REMARK   93  A    between atoms: _231  and  _232
REMARK   94  A    between atoms: _237  and  _239
REMARK   95  A    between atoms: _239  and  _240
REMARK   96  A    between atoms: _239  and  _242
REMARK   97  A    between atoms: _242  and  _243
REMARK   98  A    between atoms: _243  and  ZN_324
REMARK   99  A    between atoms: _244  and  _246
REMARK  100  A    between atoms: _246  and  _247
REMARK  101  A    between atoms: _246  and  _249
REMARK  102  A    between atoms: _249  and  _250
REMARK  103  A    between atoms: _255  and  _257
REMARK  104  A    between atoms: _257  and  _258
REMARK  105  A    between atoms: _257  and  _260
REMARK  106  A    between atoms: _260  and  _261
REMARK  107  A    between atoms: _261  and  _262
REMARK  108  A    between atoms: _267  and  _269
REMARK  109  A    between atoms: _269  and  _270
REMARK  110  A    between atoms: _269  and  _272
REMARK  111  A    between atoms: _272  and  _273
REMARK  112  A    between atoms: _276  and  _278
REMARK  113  A    between atoms: _278  and  _279
REMARK  114  A    between atoms: _278  and  _281
REMARK  115  A    between atoms: _281  and  _282
REMARK  116  A    between atoms: _288  and  _290
REMARK  117  A    between atoms: _290  and  _291
REMARK  118  A    between atoms: _291  and  _292
REMARK  119  A    between atoms: _291  and  _293
REMARK  120  A    between atoms: _293  and  _295
REMARK  121  A    between atoms: _302  and  _303
REMARK  122  A    between atoms: _307  and  _309
REMARK  123  A    between atoms: _309  and  _310
REMARK  124  A    between atoms: _312  and  _314
REMARK  125  A    between atoms: _314  and  _315
REMARK  126  A    between atoms: _314  and  _317
REMARK  127  A    between atoms: _317  and  _318
REMARK                            x       y       z     vdW  Elec       q    Type
REMARK                         _______ _______ _______ _____ _____    ______ ____
ROOT
ATOM      1  O   HOH     1      79.872   9.043 -36.584  0.00  0.00    +0.000 OA
ENDROOT
TORSDOF 0
REMARK  Name = ../refined-set-2016/4m3p/4m3p_pocket.pdb
REMARK  127 active torsions:
REMARK  status: ('A' for Active; 'I' for Inactive)
REMARK    1  A    between atoms: _1  and  _3
REMARK    2  A    between atoms: _3  and  _4
REMARK    3  A    between atoms: _3  and  _6
REMARK    4  A    between atoms: _6  and  _7
REMARK    5  A    between atoms: _10  and  _12
REMARK    6  A    between atoms: _12  and  _13
REMARK    7  A    between atoms: _15  and  _17
REMARK    8  A    between atoms: _17  and  _18
REMARK    9  A    between atoms: _20  and  _22
REMARK   10  A    between atoms: _22  and  _23
REMARK   11  A    between atoms: _22  and  _25
REMARK   12  A    between atoms: _25  and  _26
REMARK   13  A    between atoms: _32  and  _34
REMARK   14  A    between atoms: _34  and  _35
REMARK   15  A    between atoms: _34  and  _37
REMARK   16  A    between atoms: _40  and  _42
REMARK   17  A    between atoms: _42  and  _43
REMARK   18  A    between atoms: _42  and  _45
REMARK   19  A    between atoms: _45  and  _46
REMARK   20  A    between atoms: _52  and  _54
REMARK   21  A    between atoms: _54  and  _55
REMARK   22  A    between atoms: _58  and  _60
REMARK   23  A    between atoms: _60  and  _61
REMARK   24  A    between atoms: _60  and  _63
REMARK   25  A    between atoms: _63  and  _64
REMARK   26  A    between atoms: _67  and  _69
REMARK   27  A    between atoms: _69  and  _70
REMARK   28  A    between atoms: _69  and  _72
REMARK   29  A    between atoms: _72  and  _73
REMARK   30  A    between atoms: _73  and  _74
REMARK   31  A    between atoms: _77  and  _79
REMARK   32  A    between atoms: _79  and  _80
REMARK   33  A    between atoms: _79  and  _82
REMARK   34  A    between atoms: _85  and  _87
REMARK   35  A    between atoms: _87  and  _88
REMARK   36  A    between atoms: _87  and  _90
REMARK   37  A    between atoms: _90  and  _91
REMARK   38  A    between atoms: _101  and  _103
REMARK   39  A    between atoms: _103  and  _104
REMARK   40  A    between atoms: _103  and  _106
REMARK   41  A    between atoms: _106  and  _107
REMARK   42  A    between atoms: _110  and  _112
REMARK   43  A    between atoms: _112  and  _113
REMARK   44  A    between atoms: _112  and  _115
REMARK   45  A    between atoms: _115  and  _116
REMARK   46  A    between atoms: _122  and  _124
REMARK   47  A    between atoms: _124  and  _125
REMARK   48  A    between atoms: _124  and  _127
REMARK   49  A    between atoms: _127  and  _128
REMARK   50  A    between atoms: _128  and  _129
REMARK   51  A    between atoms: _134  and  _136
REMARK   52  A    between atoms: _136  and  _137
REMARK   53  A    between atoms: _136  and  _139
REMARK   54  A    between atoms: _139  and  _140
REMARK   55  A    between atoms: _143  and  _145
REMARK   56  A    between atoms: _145  and  _146
REMARK   57  A    between atoms: _145  and  _148
REMARK   58  A    between atoms: _148  and  _149
REMARK   59  A    between atoms: _155  and  _157
REMARK   60  A    between atoms: _157  and  _158
REMARK   61  A    between atoms: _157  and  _160
REMARK   62  A    between atoms: _160  and  _161
REMARK   63  A    between atoms: _164  and  _166
REMARK   64  A    between atoms: _166  and  _167
REMARK   65  A    between atoms: _169  and  _171
REMARK   66  A    between atoms: _171  and  _172
REMARK   67  A    between atoms: _171  and  _174
REMARK   68  A    between atoms: _174  and  _175
REMARK   69  A    between atoms: _177  and  _179
REMARK   70  A    between atoms: _179  and  _180
REMARK   71  A    between atoms: _179  and  _182
REMARK   72  A    between atoms: _182  and  _183
REMARK   73  A    between atoms: _186  and  _188
REMARK   74  A    between atoms: _188  and  _189
REMARK   75  A    between atoms: _188  and  _191
REMARK   76  A    between atoms: _191  and  _192
REMARK   77  A    between atoms: _192  and  _193
REMARK   78  A    between atoms: _196  and  _198
REMARK   79  A    between atoms: _198  and  _199
REMARK   80  A    between atoms: _198  and  _201
REMARK   81  A    between atoms: _201  and  _202
REMARK   82  A    between atoms: _207  and  _208
REMARK   83  A    between atoms: _210  and  _212
REMARK   84  A    between atoms: _212  and  _213
REMARK   85  A    between atoms: _212  and  _215
REMARK   86  A    between atoms: _215  and  _216
REMARK   87  A    between atoms: _219  and  _221
REMARK   88  A    between atoms: _221  and  _222
REMARK   89  A    between atoms: _221  and  _224
REMARK   90  A    between atoms: _226  and  _228
REMARK   91  A    between atoms: _228  and  _229
REMARK   92  A    between atoms: _228  and  _231
REMARK   93  A    between atoms: _231  and  _232
REMARK   94  A    between atoms: _237  and  _239
REMARK   95  A    between atoms: _239  and  _240
REMARK   96  A    between atoms: _239  and  _242
REMARK   97  A    between atoms: _242  and  _243
REMARK   98  A    between atoms: _243  and  ZN_324
REMARK   99  A    between atoms: _244  and  _246
REMARK  100  A    between atoms: _246  and  _247
REMARK  101  A    between atoms: _246  and  _249
REMARK  102  A    between atoms: _249  and  _250
REMARK  103  A    between atoms: _255  and  _257
REMARK  104  A    between atoms: _257  and  _258
REMARK  105  A    between atoms: _257  and  _260
REMARK  106  A    between atoms: _260  and  _261
REMARK  107  A    between atoms: _261  and  _262
REMARK  108  A    between atoms: _267  and  _269
REMARK  109  A    between atoms: _269  and  _270
REMARK  110  A    between atoms: _269  and  _272
REMARK  111  A    between atoms: _272  and  _273
REMARK  112  A    between atoms: _276  and  _278
REMARK  113  A    between atoms: _278  and  _279
REMARK  114  A    between atoms: _278  and  _281
REMARK  115  A    between atoms: _281  and  _282
REMARK  116  A    between atoms: _288  and  _290
REMARK  117  A    between atoms: _290  and  _291
REMARK  118  A    between atoms: _291  and  _292
REMARK  119  A    between atoms: _291  and  _293
REMARK  120  A    between atoms: _293  and  _295
REMARK  121  A    between atoms: _302  and  _303
REMARK  122  A    between atoms: _307  and  _309
REMARK  123  A    between atoms: _309  and  _310
REMARK  124  A    between atoms: _312  and  _314
REMARK  125  A    between atoms: _314  and  _315
REMARK  126  A    between atoms: _314  and  _317
REMARK  127  A    between atoms: _317  and  _318
REMARK                            x       y       z     vdW  Elec       q    Type
REMARK                         _______ _______ _______ _____ _____    ______ ____
ROOT
ATOM      1  O   HOH     1      83.991   4.242 -40.274  0.00  0.00    +0.000 OA
ENDROOT
TORSDOF 0
REMARK  Name = ../refined-set-2016/4m3p/4m3p_pocket.pdb
REMARK  127 active torsions:
REMARK  status: ('A' for Active; 'I' for Inactive)
REMARK    1  A    between atoms: _1  and  _3
REMARK    2  A    between atoms: _3  and  _4
REMARK    3  A    between atoms: _3  and  _6
REMARK    4  A    between atoms: _6  and  _7
REMARK    5  A    between atoms: _10  and  _12
REMARK    6  A    between atoms: _12  and  _13
REMARK    7  A    between atoms: _15  and  _17
REMARK    8  A    between atoms: _17  and  _18
REMARK    9  A    between atoms: _20  and  _22
REMARK   10  A    between atoms: _22  and  _23
REMARK   11  A    between atoms: _22  and  _25
REMARK   12  A    between atoms: _25  and  _26
REMARK   13  A    between atoms: _32  and  _34
REMARK   14  A    between atoms: _34  and  _35
REMARK   15  A    between atoms: _34  and  _37
REMARK   16  A    between atoms: _40  and  _42
REMARK   17  A    between atoms: _42  and  _43
REMARK   18  A    between atoms: _42  and  _45
REMARK   19  A    between atoms: _45  and  _46
REMARK   20  A    between atoms: _52  and  _54
REMARK   21  A    between atoms: _54  and  _55
REMARK   22  A    between atoms: _58  and  _60
REMARK   23  A    between atoms: _60  and  _61
REMARK   24  A    between atoms: _60  and  _63
REMARK   25  A    between atoms: _63  and  _64
REMARK   26  A    between atoms: _67  and  _69
REMARK   27  A    between atoms: _69  and  _70
REMARK   28  A    between atoms: _69  and  _72
REMARK   29  A    between atoms: _72  and  _73
REMARK   30  A    between atoms: _73  and  _74
REMARK   31  A    between atoms: _77  and  _79
REMARK   32  A    between atoms: _79  and  _80
REMARK   33  A    between atoms: _79  and  _82
REMARK   34  A    between atoms: _85  and  _87
REMARK   35  A    between atoms: _87  and  _88
REMARK   36  A    between atoms: _87  and  _90
REMARK   37  A    between atoms: _90  and  _91
REMARK   38  A    between atoms: _101  and  _103
REMARK   39  A    between atoms: _103  and  _104
REMARK   40  A    between atoms: _103  and  _106
REMARK   41  A    between atoms: _106  and  _107
REMARK   42  A    between atoms: _110  and  _112
REMARK   43  A    between atoms: _112  and  _113
REMARK   44  A    between atoms: _112  and  _115
REMARK   45  A    between atoms: _115  and  _116
REMARK   46  A    between atoms: _122  and  _124
REMARK   47  A    between atoms: _124  and  _125
REMARK   48  A    between atoms: _124  and  _127
REMARK   49  A    between atoms: _127  and  _128
REMARK   50  A    between atoms: _128  and  _129
REMARK   51  A    between atoms: _134  and  _136
REMARK   52  A    between atoms: _136  and  _137
REMARK   53  A    between atoms: _136  and  _139
REMARK   54  A    between atoms: _139  and  _140
REMARK   55  A    between atoms: _143  and  _145
REMARK   56  A    between atoms: _145  and  _146
REMARK   57  A    between atoms: _145  and  _148
REMARK   58  A    between atoms: _148  and  _149
REMARK   59  A    between atoms: _155  and  _157
REMARK   60  A    between atoms: _157  and  _158
REMARK   61  A    between atoms: _157  and  _160
REMARK   62  A    between atoms: _160  and  _161
REMARK   63  A    between atoms: _164  and  _166
REMARK   64  A    between atoms: _166  and  _167
REMARK   65  A    between atoms: _169  and  _171
REMARK   66  A    between atoms: _171  and  _172
REMARK   67  A    between atoms: _171  and  _174
REMARK   68  A    between atoms: _174  and  _175
REMARK   69  A    between atoms: _177  and  _179
REMARK   70  A    between atoms: _179  and  _180
REMARK   71  A    between atoms: _179  and  _182
REMARK   72  A    between atoms: _182  and  _183
REMARK   73  A    between atoms: _186  and  _188
REMARK   74  A    between atoms: _188  and  _189
REMARK   75  A    between atoms: _188  and  _191
REMARK   76  A    between atoms: _191  and  _192
REMARK   77  A    between atoms: _192  and  _193
REMARK   78  A    between atoms: _196  and  _198
REMARK   79  A    between atoms: _198  and  _199
REMARK   80  A    between atoms: _198  and  _201
REMARK   81  A    between atoms: _201  and  _202
REMARK   82  A    between atoms: _207  and  _208
REMARK   83  A    between atoms: _210  and  _212
REMARK   84  A    between atoms: _212  and  _213
REMARK   85  A    between atoms: _212  and  _215
REMARK   86  A    between atoms: _215  and  _216
REMARK   87  A    between atoms: _219  and  _221
REMARK   88  A    between atoms: _221  and  _222
REMARK   89  A    between atoms: _221  and  _224
REMARK   90  A    between atoms: _226  and  _228
REMARK   91  A    between atoms: _228  and  _229
REMARK   92  A    between atoms: _228  and  _231
REMARK   93  A    between atoms: _231  and  _232
REMARK   94  A    between atoms: _237  and  _239
REMARK   95  A    between atoms: _239  and  _240
REMARK   96  A    between atoms: _239  and  _242
REMARK   97  A    between atoms: _242  and  _243
REMARK   98  A    between atoms: _243  and  ZN_324
REMARK   99  A    between atoms: _244  and  _246
REMARK  100  A    between atoms: _246  and  _247
REMARK  101  A    between atoms: _246  and  _249
REMARK  102  A    between atoms: _249  and  _250
REMARK  103  A    between atoms: _255  and  _257
REMARK  104  A    between atoms: _257  and  _258
REMARK  105  A    between atoms: _257  and  _260
REMARK  106  A    between atoms: _260  and  _261
REMARK  107  A    between atoms: _261  and  _262
REMARK  108  A    between atoms: _267  and  _269
REMARK  109  A    between atoms: _269  and  _270
REMARK  110  A    between atoms: _269  and  _272
REMARK  111  A    between atoms: _272  and  _273
REMARK  112  A    between atoms: _276  and  _278
REMARK  113  A    between atoms: _278  and  _279
REMARK  114  A    between atoms: _278  and  _281
REMARK  115  A    between atoms: _281  and  _282
REMARK  116  A    between atoms: _288  and  _290
REMARK  117  A    between atoms: _290  and  _291
REMARK  118  A    between atoms: _291  and  _292
REMARK  119  A    between atoms: _291  and  _293
REMARK  120  A    between atoms: _293  and  _295
REMARK  121  A    between atoms: _302  and  _303
REMARK  122  A    between atoms: _307  and  _309
REMARK  123  A    between atoms: _309  and  _310
REMARK  124  A    between atoms: _312  and  _314
REMARK  125  A    between atoms: _314  and  _315
REMARK  126  A    between atoms: _314  and  _317
REMARK  127  A    between atoms: _317  and  _318
REMARK                            x       y       z     vdW  Elec       q    Type
REMARK                         _______ _______ _______ _____ _____    ______ ____
ROOT
ATOM      1  O   HOH     1      81.341  -0.551 -40.382  0.00  0.00    +0.000 OA
ENDROOT
TORSDOF 0
