REMARK  Name = ../refined-set-2016/2boh/2boh_pocket.pdb
REMARK  217 active torsions:
REMARK  status: ('A' for Active; 'I' for Inactive)
REMARK    1  A    between atoms: _1  and  _5
REMARK    2  A    between atoms: _5  and  _6
REMARK    3  A    between atoms: _5  and  _8
REMARK    4  A    between atoms: _8  and  _9
REMARK    5  A    between atoms: _12  and  _14
REMARK    6  A    between atoms: _14  and  _15
REMARK    7  A    between atoms: _14  and  _17
REMARK    8  A    between atoms: _20  and  _22
REMARK    9  A    between atoms: _22  and  _23
REMARK   10  A    between atoms: _22  and  _25
REMARK   11  A    between atoms: _25  and  _26
REMARK   12  A    between atoms: _32  and  _34
REMARK   13  A    between atoms: _34  and  _35
REMARK   14  A    between atoms: _34  and  _37
REMARK   15  A    between atoms: _39  and  _41
REMARK   16  A    between atoms: _41  and  _42
REMARK   17  A    between atoms: _41  and  _44
REMARK   18  A    between atoms: _44  and  _45
REMARK   19  A    between atoms: _50  and  _52
REMARK   20  A    between atoms: _52  and  _53
REMARK   21  A    between atoms: _52  and  _55
REMARK   22  A    between atoms: _55  and  _56
REMARK   23  A    between atoms: _56  and  _57
REMARK   24  A    between atoms: _62  and  _64
REMARK   25  A    between atoms: _64  and  _65
REMARK   26  A    between atoms: _64  and  _67
REMARK   27  A    between atoms: _67  and  _68
REMARK   28  A    between atoms: _74  and  _76
REMARK   29  A    between atoms: _76  and  _77
REMARK   30  A    between atoms: _76  and  _79
REMARK   31  A    between atoms: _79  and  _80
REMARK   32  A    between atoms: _83  and  _85
REMARK   33  A    between atoms: _85  and  _86
REMARK   34  A    between atoms: _85  and  _88
REMARK   35  A    between atoms: _88  and  _89
REMARK   36  A    between atoms: _89  and  _90
REMARK   37  A    between atoms: _90  and  _91
REMARK   38  A    between atoms: _91  and  _92
REMARK   39  A    between atoms: _96  and  _98
REMARK   40  A    between atoms: _98  and  _99
REMARK   41  A    between atoms: _98  and  _101
REMARK   42  A    between atoms: _101  and  _102
REMARK   43  A    between atoms: _102  and  _103
REMARK   44  A    between atoms: _106  and  _108
REMARK   45  A    between atoms: _108  and  _109
REMARK   46  A    between atoms: _108  and  _111
REMARK   47  A    between atoms: _111  and  _112
REMARK   48  A    between atoms: _115  and  _117
REMARK   49  A    between atoms: _117  and  _118
REMARK   50  A    between atoms: _117  and  _120
REMARK   51  A    between atoms: _120  and  _121
REMARK   52  A    between atoms: _126  and  _127
REMARK   53  A    between atoms: _129  and  _131
REMARK   54  A    between atoms: _131  and  _132
REMARK   55  A    between atoms: _131  and  _134
REMARK   56  A    between atoms: _134  and  _135
REMARK   57  A    between atoms: _138  and  _140
REMARK   58  A    between atoms: _140  and  _141
REMARK   59  A    between atoms: _140  and  _143
REMARK   60  A    between atoms: _143  and  _144
REMARK   61  A    between atoms: _147  and  _149
REMARK   62  A    between atoms: _149  and  _150
REMARK   63  A    between atoms: _149  and  _152
REMARK   64  A    between atoms: _155  and  _157
REMARK   65  A    between atoms: _157  and  _158
REMARK   66  A    between atoms: _157  and  _160
REMARK   67  A    between atoms: _160  and  _161
REMARK   68  A    between atoms: _161  and  _162
REMARK   69  A    between atoms: _162  and  _163
REMARK   70  A    between atoms: _172  and  _174
REMARK   71  A    between atoms: _174  and  _175
REMARK   72  A    between atoms: _174  and  _177
REMARK   73  A    between atoms: _177  and  _178
REMARK   74  A    between atoms: _183  and  _185
REMARK   75  A    between atoms: _185  and  _186
REMARK   76  A    between atoms: _185  and  _188
REMARK   77  A    between atoms: _188  and  _189
REMARK   78  A    between atoms: _189  and  _190
REMARK   79  A    between atoms: _193  and  _195
REMARK   80  A    between atoms: _195  and  _196
REMARK   81  A    between atoms: _195  and  _198
REMARK   82  A    between atoms: _198  and  _199
REMARK   83  A    between atoms: _199  and  _200
REMARK   84  A    between atoms: _200  and  _201
REMARK   85  A    between atoms: _201  and  _202
REMARK   86  A    between atoms: _206  and  _208
REMARK   87  A    between atoms: _208  and  _209
REMARK   88  A    between atoms: _211  and  _213
REMARK   89  A    between atoms: _213  and  _214
REMARK   90  A    between atoms: _213  and  _216
REMARK   91  A    between atoms: _219  and  _221
REMARK   92  A    between atoms: _221  and  _222
REMARK   93  A    between atoms: _221  and  _224
REMARK   94  A    between atoms: _224  and  _225
REMARK   95  A    between atoms: _227  and  _229
REMARK   96  A    between atoms: _229  and  _230
REMARK   97  A    between atoms: _229  and  _232
REMARK   98  A    between atoms: _232  and  _233
REMARK   99  A    between atoms: _235  and  _237
REMARK  100  A    between atoms: _237  and  _238
REMARK  101  A    between atoms: _237  and  _240
REMARK  102  A    between atoms: _240  and  _241
REMARK  103  A    between atoms: _247  and  _249
REMARK  104  A    between atoms: _249  and  _250
REMARK  105  A    between atoms: _249  and  _252
REMARK  106  A    between atoms: _252  and  _253
REMARK  107  A    between atoms: _256  and  _258
REMARK  108  A    between atoms: _258  and  _259
REMARK  109  A    between atoms: _258  and  _261
REMARK  110  A    between atoms: _261  and  _262
REMARK  111  A    between atoms: _262  and  _263
REMARK  112  A    between atoms: _265  and  _267
REMARK  113  A    between atoms: _267  and  _268
REMARK  114  A    between atoms: _267  and  _270
REMARK  115  A    between atoms: _270  and  _271
REMARK  116  A    between atoms: _277  and  _279
REMARK  117  A    between atoms: _279  and  _280
REMARK  118  A    between atoms: _279  and  _282
REMARK  119  A    between atoms: _284  and  _286
REMARK  120  A    between atoms: _286  and  _287
REMARK  121  A    between atoms: _290  and  _292
REMARK  122  A    between atoms: _292  and  _293
REMARK  123  A    between atoms: _295  and  _297
REMARK  124  A    between atoms: _297  and  _298
REMARK  125  A    between atoms: _297  and  _300
REMARK  126  A    between atoms: _300  and  _301
REMARK  127  A    between atoms: _301  and  _302
REMARK  128  A    between atoms: _305  and  _307
REMARK  129  A    between atoms: _307  and  _308
REMARK  130  A    between atoms: _307  and  _310
REMARK  131  A    between atoms: _310  and  _311
REMARK  132  A    between atoms: _314  and  _316
REMARK  133  A    between atoms: _316  and  _317
REMARK  134  A    between atoms: _320  and  _322
REMARK  135  A    between atoms: _322  and  _323
REMARK  136  A    between atoms: _322  and  _325
REMARK  137  A    between atoms: _325  and  _326
REMARK  138  A    between atoms: _326  and  _449
REMARK  139  A    between atoms: _327  and  _329
REMARK  140  A    between atoms: _329  and  _330
REMARK  141  A    between atoms: _329  and  _332
REMARK  142  A    between atoms: _332  and  _333
REMARK  143  A    between atoms: _333  and  _334
REMARK  144  A    between atoms: _339  and  _341
REMARK  145  A    between atoms: _341  and  _342
REMARK  146  A    between atoms: _344  and  _346
REMARK  147  A    between atoms: _346  and  _347
REMARK  148  A    between atoms: _346  and  _349
REMARK  149  A    between atoms: _349  and  _350
REMARK  150  A    between atoms: _353  and  _355
REMARK  151  A    between atoms: _355  and  _356
REMARK  152  A    between atoms: _355  and  _358
REMARK  153  A    between atoms: _358  and  _359
REMARK  154  A    between atoms: _361  and  _363
REMARK  155  A    between atoms: _363  and  _364
REMARK  156  A    between atoms: _366  and  _368
REMARK  157  A    between atoms: _368  and  _369
REMARK  158  A    between atoms: _371  and  _373
REMARK  159  A    between atoms: _373  and  _374
REMARK  160  A    between atoms: _373  and  _376
REMARK  161  A    between atoms: _376  and  _377
REMARK  162  A    between atoms: _382  and  _384
REMARK  163  A    between atoms: _384  and  _385
REMARK  164  A    between atoms: _384  and  _387
REMARK  165  A    between atoms: _387  and  _388
REMARK  166  A    between atoms: _391  and  _393
REMARK  167  A    between atoms: _393  and  _394
REMARK  168  A    between atoms: _393  and  _396
REMARK  169  A    between atoms: _399  and  _401
REMARK  170  A    between atoms: _401  and  _402
REMARK  171  A    between atoms: _401  and  _404
REMARK  172  A    between atoms: _404  and  _405
REMARK  173  A    between atoms: _407  and  _409
REMARK  174  A    between atoms: _409  and  _410
REMARK  175  A    between atoms: _409  and  _412
REMARK  176  A    between atoms: _412  and  _413
REMARK  177  A    between atoms: _423  and  _425
REMARK  178  A    between atoms: _425  and  _426
REMARK  179  A    between atoms: _428  and  _430
REMARK  180  A    between atoms: _430  and  _431
REMARK  181  A    between atoms: _430  and  _433
REMARK  182  A    between atoms: _433  and  _434
REMARK  183  A    between atoms: _434  and  _435
REMARK  184  A    between atoms: _438  and  _440
REMARK  185  A    between atoms: _440  and  _441
REMARK  186  A    between atoms: _443  and  _445
REMARK  187  A    between atoms: _445  and  _446
REMARK  188  A    between atoms: _445  and  _448
REMARK  189  A    between atoms: _448  and  _449
REMARK  190  A    between atoms: _450  and  _452
REMARK  191  A    between atoms: _452  and  _453
REMARK  192  A    between atoms: _456  and  _458
REMARK  193  A    between atoms: _458  and  _459
REMARK  194  A    between atoms: _458  and  _461
REMARK  195  A    between atoms: _461  and  _462
REMARK  196  A    between atoms: _462  and  _463
REMARK  197  A    between atoms: _463  and  _464
REMARK  198  A    between atoms: _473  and  _475
REMARK  199  A    between atoms: _475  and  _476
REMARK  200  A    between atoms: _475  and  _478
REMARK  201  A    between atoms: _478  and  _479
REMARK  202  A    between atoms: _484  and  _485
REMARK  203  A    between atoms: _487  and  _489
REMARK  204  A    between atoms: _489  and  _490
REMARK  205  A    between atoms: _492  and  _494
REMARK  206  A    between atoms: _494  and  _495
REMARK  207  A    between atoms: _494  and  _497
REMARK  208  A    between atoms: _497  and  _498
REMARK  209  A    between atoms: _501  and  _503
REMARK  210  A    between atoms: _503  and  _504
REMARK  211  A    between atoms: _503  and  _506
REMARK  212  A    between atoms: _506  and  _507
REMARK  213  A    between atoms: _512  and  _513
REMARK  214  A    between atoms: _515  and  _517
REMARK  215  A    between atoms: _517  and  _518
REMARK  216  A    between atoms: _517  and  _520
REMARK  217  A    between atoms: _520  and  _521
REMARK                            x       y       z     vdW  Elec       q    Type
REMARK                         _______ _______ _______ _____ _____    ______ ____
ROOT
ATOM      1  C   ILE A   1       9.760  13.873  33.502  0.00  0.00    +0.202 C 
ATOM      2  O   ILE A   1       9.158  14.797  34.052  0.00  0.00    -0.277 OA
ATOM      3  N   VAL A   2       9.567  12.597  33.817  0.00  0.00    -0.301 N 
ATOM      4  H   VAL A   2      10.085  11.864  33.291  0.00  0.00    +0.150 HD
ENDROOT
BRANCH   1   5
ATOM      5  CA  ILE A   1      10.779  14.147  32.394  0.00  0.00    +0.013 C 
BRANCH   5   6
ATOM      6  N   ILE A   1      10.194  14.966  31.288  0.00  0.00    +0.387 N 
ATOM      7  H1  ILE A   1       9.871  15.879  31.668  0.00  0.00    -0.089 HD
ATOM      8  H2  ILE A   1       9.388  14.458  30.871  0.00  0.00    -0.089 HD
ATOM      9  H3  ILE A   1      10.917  15.128  30.559  0.00  0.00    -0.089 HD
ENDBRANCH   5   6
BRANCH   5  10
ATOM     10  CB  ILE A   1      12.002  14.858  33.040  0.00  0.00    -0.011 C 
ATOM     11  CG2 ILE A   1      12.550  14.019  34.188  0.00  0.00    -0.002 C 
BRANCH  10  12
ATOM     12  CG1 ILE A   1      13.092  15.108  31.992  0.00  0.00    -0.002 C 
ATOM     13  CD1 ILE A   1      13.733  13.836  31.441  0.00  0.00    -0.000 C 
ENDBRANCH  10  12
ENDBRANCH   5  10
ENDBRANCH   1   5
BRANCH   3  14
ATOM     14  CA  VAL A   2       8.651  12.192  34.878  0.00  0.00    +0.137 C 
BRANCH  14  15
ATOM     15  CB  VAL A   2       7.957  10.845  34.559  0.00  0.00    +0.026 C 
ATOM     16  CG2 VAL A   2       6.982  10.482  35.682  0.00  0.00    +0.002 C 
ATOM     17  CG1 VAL A   2       7.228  10.931  33.209  0.00  0.00    +0.002 C 
ENDBRANCH  14  15
BRANCH  14  18
ATOM     18  C   VAL A   2       9.500  12.015  36.127  0.00  0.00    +0.227 C 
ATOM     19  O   VAL A   2      10.453  11.235  36.132  0.00  0.00    -0.286 OA
ENDBRANCH  14  18
ENDBRANCH   3  14
TORSDOF 7
REMARK  Name = ../refined-set-2016/2boh/2boh_pocket.pdb
REMARK  217 active torsions:
REMARK  status: ('A' for Active; 'I' for Inactive)
REMARK    1  A    between atoms: _1  and  _5
REMARK    2  A    between atoms: _5  and  _6
REMARK    3  A    between atoms: _5  and  _8
REMARK    4  A    between atoms: _8  and  _9
REMARK    5  A    between atoms: _12  and  _14
REMARK    6  A    between atoms: _14  and  _15
REMARK    7  A    between atoms: _14  and  _17
REMARK    8  A    between atoms: _20  and  _22
REMARK    9  A    between atoms: _22  and  _23
REMARK   10  A    between atoms: _22  and  _25
REMARK   11  A    between atoms: _25  and  _26
REMARK   12  A    between atoms: _32  and  _34
REMARK   13  A    between atoms: _34  and  _35
REMARK   14  A    between atoms: _34  and  _37
REMARK   15  A    between atoms: _39  and  _41
REMARK   16  A    between atoms: _41  and  _42
REMARK   17  A    between atoms: _41  and  _44
REMARK   18  A    between atoms: _44  and  _45
REMARK   19  A    between atoms: _50  and  _52
REMARK   20  A    between atoms: _52  and  _53
REMARK   21  A    between atoms: _52  and  _55
REMARK   22  A    between atoms: _55  and  _56
REMARK   23  A    between atoms: _56  and  _57
REMARK   24  A    between atoms: _62  and  _64
REMARK   25  A    between atoms: _64  and  _65
REMARK   26  A    between atoms: _64  and  _67
REMARK   27  A    between atoms: _67  and  _68
REMARK   28  A    between atoms: _74  and  _76
REMARK   29  A    between atoms: _76  and  _77
REMARK   30  A    between atoms: _76  and  _79
REMARK   31  A    between atoms: _79  and  _80
REMARK   32  A    between atoms: _83  and  _85
REMARK   33  A    between atoms: _85  and  _86
REMARK   34  A    between atoms: _85  and  _88
REMARK   35  A    between atoms: _88  and  _89
REMARK   36  A    between atoms: _89  and  _90
REMARK   37  A    between atoms: _90  and  _91
REMARK   38  A    between atoms: _91  and  _92
REMARK   39  A    between atoms: _96  and  _98
REMARK   40  A    between atoms: _98  and  _99
REMARK   41  A    between atoms: _98  and  _101
REMARK   42  A    between atoms: _101  and  _102
REMARK   43  A    between atoms: _102  and  _103
REMARK   44  A    between atoms: _106  and  _108
REMARK   45  A    between atoms: _108  and  _109
REMARK   46  A    between atoms: _108  and  _111
REMARK   47  A    between atoms: _111  and  _112
REMARK   48  A    between atoms: _115  and  _117
REMARK   49  A    between atoms: _117  and  _118
REMARK   50  A    between atoms: _117  and  _120
REMARK   51  A    between atoms: _120  and  _121
REMARK   52  A    between atoms: _126  and  _127
REMARK   53  A    between atoms: _129  and  _131
REMARK   54  A    between atoms: _131  and  _132
REMARK   55  A    between atoms: _131  and  _134
REMARK   56  A    between atoms: _134  and  _135
REMARK   57  A    between atoms: _138  and  _140
REMARK   58  A    between atoms: _140  and  _141
REMARK   59  A    between atoms: _140  and  _143
REMARK   60  A    between atoms: _143  and  _144
REMARK   61  A    between atoms: _147  and  _149
REMARK   62  A    between atoms: _149  and  _150
REMARK   63  A    between atoms: _149  and  _152
REMARK   64  A    between atoms: _155  and  _157
REMARK   65  A    between atoms: _157  and  _158
REMARK   66  A    between atoms: _157  and  _160
REMARK   67  A    between atoms: _160  and  _161
REMARK   68  A    between atoms: _161  and  _162
REMARK   69  A    between atoms: _162  and  _163
REMARK   70  A    between atoms: _172  and  _174
REMARK   71  A    between atoms: _174  and  _175
REMARK   72  A    between atoms: _174  and  _177
REMARK   73  A    between atoms: _177  and  _178
REMARK   74  A    between atoms: _183  and  _185
REMARK   75  A    between atoms: _185  and  _186
REMARK   76  A    between atoms: _185  and  _188
REMARK   77  A    between atoms: _188  and  _189
REMARK   78  A    between atoms: _189  and  _190
REMARK   79  A    between atoms: _193  and  _195
REMARK   80  A    between atoms: _195  and  _196
REMARK   81  A    between atoms: _195  and  _198
REMARK   82  A    between atoms: _198  and  _199
REMARK   83  A    between atoms: _199  and  _200
REMARK   84  A    between atoms: _200  and  _201
REMARK   85  A    between atoms: _201  and  _202
REMARK   86  A    between atoms: _206  and  _208
REMARK   87  A    between atoms: _208  and  _209
REMARK   88  A    between atoms: _211  and  _213
REMARK   89  A    between atoms: _213  and  _214
REMARK   90  A    between atoms: _213  and  _216
REMARK   91  A    between atoms: _219  and  _221
REMARK   92  A    between atoms: _221  and  _222
REMARK   93  A    between atoms: _221  and  _224
REMARK   94  A    between atoms: _224  and  _225
REMARK   95  A    between atoms: _227  and  _229
REMARK   96  A    between atoms: _229  and  _230
REMARK   97  A    between atoms: _229  and  _232
REMARK   98  A    between atoms: _232  and  _233
REMARK   99  A    between atoms: _235  and  _237
REMARK  100  A    between atoms: _237  and  _238
REMARK  101  A    between atoms: _237  and  _240
REMARK  102  A    between atoms: _240  and  _241
REMARK  103  A    between atoms: _247  and  _249
REMARK  104  A    between atoms: _249  and  _250
REMARK  105  A    between atoms: _249  and  _252
REMARK  106  A    between atoms: _252  and  _253
REMARK  107  A    between atoms: _256  and  _258
REMARK  108  A    between atoms: _258  and  _259
REMARK  109  A    between atoms: _258  and  _261
REMARK  110  A    between atoms: _261  and  _262
REMARK  111  A    between atoms: _262  and  _263
REMARK  112  A    between atoms: _265  and  _267
REMARK  113  A    between atoms: _267  and  _268
REMARK  114  A    between atoms: _267  and  _270
REMARK  115  A    between atoms: _270  and  _271
REMARK  116  A    between atoms: _277  and  _279
REMARK  117  A    between atoms: _279  and  _280
REMARK  118  A    between atoms: _279  and  _282
REMARK  119  A    between atoms: _284  and  _286
REMARK  120  A    between atoms: _286  and  _287
REMARK  121  A    between atoms: _290  and  _292
REMARK  122  A    between atoms: _292  and  _293
REMARK  123  A    between atoms: _295  and  _297
REMARK  124  A    between atoms: _297  and  _298
REMARK  125  A    between atoms: _297  and  _300
REMARK  126  A    between atoms: _300  and  _301
REMARK  127  A    between atoms: _301  and  _302
REMARK  128  A    between atoms: _305  and  _307
REMARK  129  A    between atoms: _307  and  _308
REMARK  130  A    between atoms: _307  and  _310
REMARK  131  A    between atoms: _310  and  _311
REMARK  132  A    between atoms: _314  and  _316
REMARK  133  A    between atoms: _316  and  _317
REMARK  134  A    between atoms: _320  and  _322
REMARK  135  A    between atoms: _322  and  _323
REMARK  136  A    between atoms: _322  and  _325
REMARK  137  A    between atoms: _325  and  _326
REMARK  138  A    between atoms: _326  and  _449
REMARK  139  A    between atoms: _327  and  _329
REMARK  140  A    between atoms: _329  and  _330
REMARK  141  A    between atoms: _329  and  _332
REMARK  142  A    between atoms: _332  and  _333
REMARK  143  A    between atoms: _333  and  _334
REMARK  144  A    between atoms: _339  and  _341
REMARK  145  A    between atoms: _341  and  _342
REMARK  146  A    between atoms: _344  and  _346
REMARK  147  A    between atoms: _346  and  _347
REMARK  148  A    between atoms: _346  and  _349
REMARK  149  A    between atoms: _349  and  _350
REMARK  150  A    between atoms: _353  and  _355
REMARK  151  A    between atoms: _355  and  _356
REMARK  152  A    between atoms: _355  and  _358
REMARK  153  A    between atoms: _358  and  _359
REMARK  154  A    between atoms: _361  and  _363
REMARK  155  A    between atoms: _363  and  _364
REMARK  156  A    between atoms: _366  and  _368
REMARK  157  A    between atoms: _368  and  _369
REMARK  158  A    between atoms: _371  and  _373
REMARK  159  A    between atoms: _373  and  _374
REMARK  160  A    between atoms: _373  and  _376
REMARK  161  A    between atoms: _376  and  _377
REMARK  162  A    between atoms: _382  and  _384
REMARK  163  A    between atoms: _384  and  _385
REMARK  164  A    between atoms: _384  and  _387
REMARK  165  A    between atoms: _387  and  _388
REMARK  166  A    between atoms: _391  and  _393
REMARK  167  A    between atoms: _393  and  _394
REMARK  168  A    between atoms: _393  and  _396
REMARK  169  A    between atoms: _399  and  _401
REMARK  170  A    between atoms: _401  and  _402
REMARK  171  A    between atoms: _401  and  _404
REMARK  172  A    between atoms: _404  and  _405
REMARK  173  A    between atoms: _407  and  _409
REMARK  174  A    between atoms: _409  and  _410
REMARK  175  A    between atoms: _409  and  _412
REMARK  176  A    between atoms: _412  and  _413
REMARK  177  A    between atoms: _423  and  _425
REMARK  178  A    between atoms: _425  and  _426
REMARK  179  A    between atoms: _428  and  _430
REMARK  180  A    between atoms: _430  and  _431
REMARK  181  A    between atoms: _430  and  _433
REMARK  182  A    between atoms: _433  and  _434
REMARK  183  A    between atoms: _434  and  _435
REMARK  184  A    between atoms: _438  and  _440
REMARK  185  A    between atoms: _440  and  _441
REMARK  186  A    between atoms: _443  and  _445
REMARK  187  A    between atoms: _445  and  _446
REMARK  188  A    between atoms: _445  and  _448
REMARK  189  A    between atoms: _448  and  _449
REMARK  190  A    between atoms: _450  and  _452
REMARK  191  A    between atoms: _452  and  _453
REMARK  192  A    between atoms: _456  and  _458
REMARK  193  A    between atoms: _458  and  _459
REMARK  194  A    between atoms: _458  and  _461
REMARK  195  A    between atoms: _461  and  _462
REMARK  196  A    between atoms: _462  and  _463
REMARK  197  A    between atoms: _463  and  _464
REMARK  198  A    between atoms: _473  and  _475
REMARK  199  A    between atoms: _475  and  _476
REMARK  200  A    between atoms: _475  and  _478
REMARK  201  A    between atoms: _478  and  _479
REMARK  202  A    between atoms: _484  and  _485
REMARK  203  A    between atoms: _487  and  _489
REMARK  204  A    between atoms: _489  and  _490
REMARK  205  A    between atoms: _492  and  _494
REMARK  206  A    between atoms: _494  and  _495
REMARK  207  A    between atoms: _494  and  _497
REMARK  208  A    between atoms: _497  and  _498
REMARK  209  A    between atoms: _501  and  _503
REMARK  210  A    between atoms: _503  and  _504
REMARK  211  A    between atoms: _503  and  _506
REMARK  212  A    between atoms: _506  and  _507
REMARK  213  A    between atoms: _512  and  _513
REMARK  214  A    between atoms: _515  and  _517
REMARK  215  A    between atoms: _517  and  _518
REMARK  216  A    between atoms: _517  and  _520
REMARK  217  A    between atoms: _520  and  _521
REMARK                            x       y       z     vdW  Elec       q    Type
REMARK                         _______ _______ _______ _____ _____    ______ ____
ROOT
ATOM      1  CA  PHE A   1       8.608  19.463  20.508  0.00  0.00    +0.149 C 
ENDROOT
BRANCH   1   2
ATOM      2  C   PHE A   1       9.645  18.366  20.714  0.00  0.00    +0.239 C 
ATOM      3  O   PHE A   1       9.301  17.197  20.855  0.00  0.00    -0.274 OA
ATOM      4  N   CYS A   2      10.915  18.752  20.737  0.00  0.00    -0.297 N 
ATOM      5  H   CYS A   2      11.142  19.760  20.620  0.00  0.00    +0.150 HD
BRANCH   4   6
ATOM      6  CA  CYS A   2      11.999  17.795  20.923  0.00  0.00    +0.149 C 
BRANCH   6   7
ATOM      7  C   CYS A   2      13.201  18.451  21.577  0.00  0.00    +0.228 C 
ATOM      8  O   CYS A   2      13.315  19.679  21.623  0.00  0.00    -0.286 OA
ENDBRANCH   6   7
BRANCH   6   9
ATOM      9  CB  CYS A   2      12.436  17.196  19.577  0.00  0.00    +0.096 C 
ATOM     10  SG  CYS A   2      11.536  15.705  19.039  0.00  0.00    -0.080 S 
ENDBRANCH   6   9
ENDBRANCH   4   6
ENDBRANCH   1   2
BRANCH   1  11
ATOM     11  N   PHE A   1       9.161  20.783  20.792  0.00  0.00    -0.238 NA
ATOM     12  H   PHE A   1      10.019  21.101  20.297  0.00  0.00    +0.142 HD
ENDBRANCH   1  11
BRANCH   1  13
ATOM     13  CB  PHE A   1       8.055  19.388  19.080  0.00  0.00    +0.053 C 
BRANCH  13  14
ATOM     14  CG  PHE A   1       9.057  19.721  18.014  0.00  0.00    -0.020 A 
ATOM     15  CD2 PHE A   1       9.298  21.048  17.656  0.00  0.00    -0.004 A 
ATOM     16  CE2 PHE A   1      10.217  21.364  16.656  0.00  0.00    -0.000 A 
ATOM     17  CZ  PHE A   1      10.906  20.344  16.006  0.00  0.00    -0.000 A 
ATOM     18  CE1 PHE A   1      10.672  19.010  16.358  0.00  0.00    -0.000 A 
ATOM     19  CD1 PHE A   1       9.752  18.710  17.358  0.00  0.00    -0.004 A 
ENDBRANCH  13  14
ENDBRANCH   1  13
TORSDOF 7
REMARK  Name = ../refined-set-2016/2boh/2boh_pocket.pdb
REMARK  217 active torsions:
REMARK  status: ('A' for Active; 'I' for Inactive)
REMARK    1  A    between atoms: _1  and  _5
REMARK    2  A    between atoms: _5  and  _6
REMARK    3  A    between atoms: _5  and  _8
REMARK    4  A    between atoms: _8  and  _9
REMARK    5  A    between atoms: _12  and  _14
REMARK    6  A    between atoms: _14  and  _15
REMARK    7  A    between atoms: _14  and  _17
REMARK    8  A    between atoms: _20  and  _22
REMARK    9  A    between atoms: _22  and  _23
REMARK   10  A    between atoms: _22  and  _25
REMARK   11  A    between atoms: _25  and  _26
REMARK   12  A    between atoms: _32  and  _34
REMARK   13  A    between atoms: _34  and  _35
REMARK   14  A    between atoms: _34  and  _37
REMARK   15  A    between atoms: _39  and  _41
REMARK   16  A    between atoms: _41  and  _42
REMARK   17  A    between atoms: _41  and  _44
REMARK   18  A    between atoms: _44  and  _45
REMARK   19  A    between atoms: _50  and  _52
REMARK   20  A    between atoms: _52  and  _53
REMARK   21  A    between atoms: _52  and  _55
REMARK   22  A    between atoms: _55  and  _56
REMARK   23  A    between atoms: _56  and  _57
REMARK   24  A    between atoms: _62  and  _64
REMARK   25  A    between atoms: _64  and  _65
REMARK   26  A    between atoms: _64  and  _67
REMARK   27  A    between atoms: _67  and  _68
REMARK   28  A    between atoms: _74  and  _76
REMARK   29  A    between atoms: _76  and  _77
REMARK   30  A    between atoms: _76  and  _79
REMARK   31  A    between atoms: _79  and  _80
REMARK   32  A    between atoms: _83  and  _85
REMARK   33  A    between atoms: _85  and  _86
REMARK   34  A    between atoms: _85  and  _88
REMARK   35  A    between atoms: _88  and  _89
REMARK   36  A    between atoms: _89  and  _90
REMARK   37  A    between atoms: _90  and  _91
REMARK   38  A    between atoms: _91  and  _92
REMARK   39  A    between atoms: _96  and  _98
REMARK   40  A    between atoms: _98  and  _99
REMARK   41  A    between atoms: _98  and  _101
REMARK   42  A    between atoms: _101  and  _102
REMARK   43  A    between atoms: _102  and  _103
REMARK   44  A    between atoms: _106  and  _108
REMARK   45  A    between atoms: _108  and  _109
REMARK   46  A    between atoms: _108  and  _111
REMARK   47  A    between atoms: _111  and  _112
REMARK   48  A    between atoms: _115  and  _117
REMARK   49  A    between atoms: _117  and  _118
REMARK   50  A    between atoms: _117  and  _120
REMARK   51  A    between atoms: _120  and  _121
REMARK   52  A    between atoms: _126  and  _127
REMARK   53  A    between atoms: _129  and  _131
REMARK   54  A    between atoms: _131  and  _132
REMARK   55  A    between atoms: _131  and  _134
REMARK   56  A    between atoms: _134  and  _135
REMARK   57  A    between atoms: _138  and  _140
REMARK   58  A    between atoms: _140  and  _141
REMARK   59  A    between atoms: _140  and  _143
REMARK   60  A    between atoms: _143  and  _144
REMARK   61  A    between atoms: _147  and  _149
REMARK   62  A    between atoms: _149  and  _150
REMARK   63  A    between atoms: _149  and  _152
REMARK   64  A    between atoms: _155  and  _157
REMARK   65  A    between atoms: _157  and  _158
REMARK   66  A    between atoms: _157  and  _160
REMARK   67  A    between atoms: _160  and  _161
REMARK   68  A    between atoms: _161  and  _162
REMARK   69  A    between atoms: _162  and  _163
REMARK   70  A    between atoms: _172  and  _174
REMARK   71  A    between atoms: _174  and  _175
REMARK   72  A    between atoms: _174  and  _177
REMARK   73  A    between atoms: _177  and  _178
REMARK   74  A    between atoms: _183  and  _185
REMARK   75  A    between atoms: _185  and  _186
REMARK   76  A    between atoms: _185  and  _188
REMARK   77  A    between atoms: _188  and  _189
REMARK   78  A    between atoms: _189  and  _190
REMARK   79  A    between atoms: _193  and  _195
REMARK   80  A    between atoms: _195  and  _196
REMARK   81  A    between atoms: _195  and  _198
REMARK   82  A    between atoms: _198  and  _199
REMARK   83  A    between atoms: _199  and  _200
REMARK   84  A    between atoms: _200  and  _201
REMARK   85  A    between atoms: _201  and  _202
REMARK   86  A    between atoms: _206  and  _208
REMARK   87  A    between atoms: _208  and  _209
REMARK   88  A    between atoms: _211  and  _213
REMARK   89  A    between atoms: _213  and  _214
REMARK   90  A    between atoms: _213  and  _216
REMARK   91  A    between atoms: _219  and  _221
REMARK   92  A    between atoms: _221  and  _222
REMARK   93  A    between atoms: _221  and  _224
REMARK   94  A    between atoms: _224  and  _225
REMARK   95  A    between atoms: _227  and  _229
REMARK   96  A    between atoms: _229  and  _230
REMARK   97  A    between atoms: _229  and  _232
REMARK   98  A    between atoms: _232  and  _233
REMARK   99  A    between atoms: _235  and  _237
REMARK  100  A    between atoms: _237  and  _238
REMARK  101  A    between atoms: _237  and  _240
REMARK  102  A    between atoms: _240  and  _241
REMARK  103  A    between atoms: _247  and  _249
REMARK  104  A    between atoms: _249  and  _250
REMARK  105  A    between atoms: _249  and  _252
REMARK  106  A    between atoms: _252  and  _253
REMARK  107  A    between atoms: _256  and  _258
REMARK  108  A    between atoms: _258  and  _259
REMARK  109  A    between atoms: _258  and  _261
REMARK  110  A    between atoms: _261  and  _262
REMARK  111  A    between atoms: _262  and  _263
REMARK  112  A    between atoms: _265  and  _267
REMARK  113  A    between atoms: _267  and  _268
REMARK  114  A    between atoms: _267  and  _270
REMARK  115  A    between atoms: _270  and  _271
REMARK  116  A    between atoms: _277  and  _279
REMARK  117  A    between atoms: _279  and  _280
REMARK  118  A    between atoms: _279  and  _282
REMARK  119  A    between atoms: _284  and  _286
REMARK  120  A    between atoms: _286  and  _287
REMARK  121  A    between atoms: _290  and  _292
REMARK  122  A    between atoms: _292  and  _293
REMARK  123  A    between atoms: _295  and  _297
REMARK  124  A    between atoms: _297  and  _298
REMARK  125  A    between atoms: _297  and  _300
REMARK  126  A    between atoms: _300  and  _301
REMARK  127  A    between atoms: _301  and  _302
REMARK  128  A    between atoms: _305  and  _307
REMARK  129  A    between atoms: _307  and  _308
REMARK  130  A    between atoms: _307  and  _310
REMARK  131  A    between atoms: _310  and  _311
REMARK  132  A    between atoms: _314  and  _316
REMARK  133  A    between atoms: _316  and  _317
REMARK  134  A    between atoms: _320  and  _322
REMARK  135  A    between atoms: _322  and  _323
REMARK  136  A    between atoms: _322  and  _325
REMARK  137  A    between atoms: _325  and  _326
REMARK  138  A    between atoms: _326  and  _449
REMARK  139  A    between atoms: _327  and  _329
REMARK  140  A    between atoms: _329  and  _330
REMARK  141  A    between atoms: _329  and  _332
REMARK  142  A    between atoms: _332  and  _333
REMARK  143  A    between atoms: _333  and  _334
REMARK  144  A    between atoms: _339  and  _341
REMARK  145  A    between atoms: _341  and  _342
REMARK  146  A    between atoms: _344  and  _346
REMARK  147  A    between atoms: _346  and  _347
REMARK  148  A    between atoms: _346  and  _349
REMARK  149  A    between atoms: _349  and  _350
REMARK  150  A    between atoms: _353  and  _355
REMARK  151  A    between atoms: _355  and  _356
REMARK  152  A    between atoms: _355  and  _358
REMARK  153  A    between atoms: _358  and  _359
REMARK  154  A    between atoms: _361  and  _363
REMARK  155  A    between atoms: _363  and  _364
REMARK  156  A    between atoms: _366  and  _368
REMARK  157  A    between atoms: _368  and  _369
REMARK  158  A    between atoms: _371  and  _373
REMARK  159  A    between atoms: _373  and  _374
REMARK  160  A    between atoms: _373  and  _376
REMARK  161  A    between atoms: _376  and  _377
REMARK  162  A    between atoms: _382  and  _384
REMARK  163  A    between atoms: _384  and  _385
REMARK  164  A    between atoms: _384  and  _387
REMARK  165  A    between atoms: _387  and  _388
REMARK  166  A    between atoms: _391  and  _393
REMARK  167  A    between atoms: _393  and  _394
REMARK  168  A    between atoms: _393  and  _396
REMARK  169  A    between atoms: _399  and  _401
REMARK  170  A    between atoms: _401  and  _402
REMARK  171  A    between atoms: _401  and  _404
REMARK  172  A    between atoms: _404  and  _405
REMARK  173  A    between atoms: _407  and  _409
REMARK  174  A    between atoms: _409  and  _410
REMARK  175  A    between atoms: _409  and  _412
REMARK  176  A    between atoms: _412  and  _413
REMARK  177  A    between atoms: _423  and  _425
REMARK  178  A    between atoms: _425  and  _426
REMARK  179  A    between atoms: _428  and  _430
REMARK  180  A    between atoms: _430  and  _431
REMARK  181  A    between atoms: _430  and  _433
REMARK  182  A    between atoms: _433  and  _434
REMARK  183  A    between atoms: _434  and  _435
REMARK  184  A    between atoms: _438  and  _440
REMARK  185  A    between atoms: _440  and  _441
REMARK  186  A    between atoms: _443  and  _445
REMARK  187  A    between atoms: _445  and  _446
REMARK  188  A    between atoms: _445  and  _448
REMARK  189  A    between atoms: _448  and  _449
REMARK  190  A    between atoms: _450  and  _452
REMARK  191  A    between atoms: _452  and  _453
REMARK  192  A    between atoms: _456  and  _458
REMARK  193  A    between atoms: _458  and  _459
REMARK  194  A    between atoms: _458  and  _461
REMARK  195  A    between atoms: _461  and  _462
REMARK  196  A    between atoms: _462  and  _463
REMARK  197  A    between atoms: _463  and  _464
REMARK  198  A    between atoms: _473  and  _475
REMARK  199  A    between atoms: _475  and  _476
REMARK  200  A    between atoms: _475  and  _478
REMARK  201  A    between atoms: _478  and  _479
REMARK  202  A    between atoms: _484  and  _485
REMARK  203  A    between atoms: _487  and  _489
REMARK  204  A    between atoms: _489  and  _490
REMARK  205  A    between atoms: _492  and  _494
REMARK  206  A    between atoms: _494  and  _495
REMARK  207  A    between atoms: _494  and  _497
REMARK  208  A    between atoms: _497  and  _498
REMARK  209  A    between atoms: _501  and  _503
REMARK  210  A    between atoms: _503  and  _504
REMARK  211  A    between atoms: _503  and  _506
REMARK  212  A    between atoms: _506  and  _507
REMARK  213  A    between atoms: _512  and  _513
REMARK  214  A    between atoms: _515  and  _517
REMARK  215  A    between atoms: _517  and  _518
REMARK  216  A    between atoms: _517  and  _520
REMARK  217  A    between atoms: _520  and  _521
REMARK                            x       y       z     vdW  Elec       q    Type
REMARK                         _______ _______ _______ _____ _____    ______ ____
ROOT
ATOM      1  CB  HIS A   1      11.685   9.736  15.174  0.00  0.00    +0.072 C 
ENDROOT
BRANCH   1   2
ATOM      2  CG  HIS A   1      11.577  10.127  16.616  0.00  0.00    +0.082 A 
ATOM      3  ND1 HIS A   1      12.517   9.771  17.559  0.00  0.00    -0.227 NA
ATOM      4  CE1 HIS A   1      12.139  10.212  18.745  0.00  0.00    +0.199 A 
ATOM      5  NE2 HIS A   1      10.988  10.847  18.607  0.00  0.00    -0.221 NA
ATOM      6  CD2 HIS A   1      10.616  10.809  17.285  0.00  0.00    +0.115 A 
ENDBRANCH   1   2
BRANCH   1   7
ATOM      7  CA  HIS A   1      12.273  10.824  14.251  0.00  0.00    +0.139 C 
BRANCH   7   8
ATOM      8  N   HIS A   1      13.728  10.802  14.255  0.00  0.00    -0.239 NA
ATOM      9  H   HIS A   1      14.240  10.201  14.932  0.00  0.00    +0.142 HD
ENDBRANCH   7   8
BRANCH   7  10
ATOM     10  C   HIS A   1      11.735  12.201  14.616  0.00  0.00    +0.224 C 
ATOM     11  O   HIS A   1      10.592  12.529  14.297  0.00  0.00    -0.287 OA
ENDBRANCH   7  10
ENDBRANCH   1   7
TORSDOF 4
REMARK  Name = ../refined-set-2016/2boh/2boh_pocket.pdb
REMARK  217 active torsions:
REMARK  status: ('A' for Active; 'I' for Inactive)
REMARK    1  A    between atoms: _1  and  _5
REMARK    2  A    between atoms: _5  and  _6
REMARK    3  A    between atoms: _5  and  _8
REMARK    4  A    between atoms: _8  and  _9
REMARK    5  A    between atoms: _12  and  _14
REMARK    6  A    between atoms: _14  and  _15
REMARK    7  A    between atoms: _14  and  _17
REMARK    8  A    between atoms: _20  and  _22
REMARK    9  A    between atoms: _22  and  _23
REMARK   10  A    between atoms: _22  and  _25
REMARK   11  A    between atoms: _25  and  _26
REMARK   12  A    between atoms: _32  and  _34
REMARK   13  A    between atoms: _34  and  _35
REMARK   14  A    between atoms: _34  and  _37
REMARK   15  A    between atoms: _39  and  _41
REMARK   16  A    between atoms: _41  and  _42
REMARK   17  A    between atoms: _41  and  _44
REMARK   18  A    between atoms: _44  and  _45
REMARK   19  A    between atoms: _50  and  _52
REMARK   20  A    between atoms: _52  and  _53
REMARK   21  A    between atoms: _52  and  _55
REMARK   22  A    between atoms: _55  and  _56
REMARK   23  A    between atoms: _56  and  _57
REMARK   24  A    between atoms: _62  and  _64
REMARK   25  A    between atoms: _64  and  _65
REMARK   26  A    between atoms: _64  and  _67
REMARK   27  A    between atoms: _67  and  _68
REMARK   28  A    between atoms: _74  and  _76
REMARK   29  A    between atoms: _76  and  _77
REMARK   30  A    between atoms: _76  and  _79
REMARK   31  A    between atoms: _79  and  _80
REMARK   32  A    between atoms: _83  and  _85
REMARK   33  A    between atoms: _85  and  _86
REMARK   34  A    between atoms: _85  and  _88
REMARK   35  A    between atoms: _88  and  _89
REMARK   36  A    between atoms: _89  and  _90
REMARK   37  A    between atoms: _90  and  _91
REMARK   38  A    between atoms: _91  and  _92
REMARK   39  A    between atoms: _96  and  _98
REMARK   40  A    between atoms: _98  and  _99
REMARK   41  A    between atoms: _98  and  _101
REMARK   42  A    between atoms: _101  and  _102
REMARK   43  A    between atoms: _102  and  _103
REMARK   44  A    between atoms: _106  and  _108
REMARK   45  A    between atoms: _108  and  _109
REMARK   46  A    between atoms: _108  and  _111
REMARK   47  A    between atoms: _111  and  _112
REMARK   48  A    between atoms: _115  and  _117
REMARK   49  A    between atoms: _117  and  _118
REMARK   50  A    between atoms: _117  and  _120
REMARK   51  A    between atoms: _120  and  _121
REMARK   52  A    between atoms: _126  and  _127
REMARK   53  A    between atoms: _129  and  _131
REMARK   54  A    between atoms: _131  and  _132
REMARK   55  A    between atoms: _131  and  _134
REMARK   56  A    between atoms: _134  and  _135
REMARK   57  A    between atoms: _138  and  _140
REMARK   58  A    between atoms: _140  and  _141
REMARK   59  A    between atoms: _140  and  _143
REMARK   60  A    between atoms: _143  and  _144
REMARK   61  A    between atoms: _147  and  _149
REMARK   62  A    between atoms: _149  and  _150
REMARK   63  A    between atoms: _149  and  _152
REMARK   64  A    between atoms: _155  and  _157
REMARK   65  A    between atoms: _157  and  _158
REMARK   66  A    between atoms: _157  and  _160
REMARK   67  A    between atoms: _160  and  _161
REMARK   68  A    between atoms: _161  and  _162
REMARK   69  A    between atoms: _162  and  _163
REMARK   70  A    between atoms: _172  and  _174
REMARK   71  A    between atoms: _174  and  _175
REMARK   72  A    between atoms: _174  and  _177
REMARK   73  A    between atoms: _177  and  _178
REMARK   74  A    between atoms: _183  and  _185
REMARK   75  A    between atoms: _185  and  _186
REMARK   76  A    between atoms: _185  and  _188
REMARK   77  A    between atoms: _188  and  _189
REMARK   78  A    between atoms: _189  and  _190
REMARK   79  A    between atoms: _193  and  _195
REMARK   80  A    between atoms: _195  and  _196
REMARK   81  A    between atoms: _195  and  _198
REMARK   82  A    between atoms: _198  and  _199
REMARK   83  A    between atoms: _199  and  _200
REMARK   84  A    between atoms: _200  and  _201
REMARK   85  A    between atoms: _201  and  _202
REMARK   86  A    between atoms: _206  and  _208
REMARK   87  A    between atoms: _208  and  _209
REMARK   88  A    between atoms: _211  and  _213
REMARK   89  A    between atoms: _213  and  _214
REMARK   90  A    between atoms: _213  and  _216
REMARK   91  A    between atoms: _219  and  _221
REMARK   92  A    between atoms: _221  and  _222
REMARK   93  A    between atoms: _221  and  _224
REMARK   94  A    between atoms: _224  and  _225
REMARK   95  A    between atoms: _227  and  _229
REMARK   96  A    between atoms: _229  and  _230
REMARK   97  A    between atoms: _229  and  _232
REMARK   98  A    between atoms: _232  and  _233
REMARK   99  A    between atoms: _235  and  _237
REMARK  100  A    between atoms: _237  and  _238
REMARK  101  A    between atoms: _237  and  _240
REMARK  102  A    between atoms: _240  and  _241
REMARK  103  A    between atoms: _247  and  _249
REMARK  104  A    between atoms: _249  and  _250
REMARK  105  A    between atoms: _249  and  _252
REMARK  106  A    between atoms: _252  and  _253
REMARK  107  A    between atoms: _256  and  _258
REMARK  108  A    between atoms: _258  and  _259
REMARK  109  A    between atoms: _258  and  _261
REMARK  110  A    between atoms: _261  and  _262
REMARK  111  A    between atoms: _262  and  _263
REMARK  112  A    between atoms: _265  and  _267
REMARK  113  A    between atoms: _267  and  _268
REMARK  114  A    between atoms: _267  and  _270
REMARK  115  A    between atoms: _270  and  _271
REMARK  116  A    between atoms: _277  and  _279
REMARK  117  A    between atoms: _279  and  _280
REMARK  118  A    between atoms: _279  and  _282
REMARK  119  A    between atoms: _284  and  _286
REMARK  120  A    between atoms: _286  and  _287
REMARK  121  A    between atoms: _290  and  _292
REMARK  122  A    between atoms: _292  and  _293
REMARK  123  A    between atoms: _295  and  _297
REMARK  124  A    between atoms: _297  and  _298
REMARK  125  A    between atoms: _297  and  _300
REMARK  126  A    between atoms: _300  and  _301
REMARK  127  A    between atoms: _301  and  _302
REMARK  128  A    between atoms: _305  and  _307
REMARK  129  A    between atoms: _307  and  _308
REMARK  130  A    between atoms: _307  and  _310
REMARK  131  A    between atoms: _310  and  _311
REMARK  132  A    between atoms: _314  and  _316
REMARK  133  A    between atoms: _316  and  _317
REMARK  134  A    between atoms: _320  and  _322
REMARK  135  A    between atoms: _322  and  _323
REMARK  136  A    between atoms: _322  and  _325
REMARK  137  A    between atoms: _325  and  _326
REMARK  138  A    between atoms: _326  and  _449
REMARK  139  A    between atoms: _327  and  _329
REMARK  140  A    between atoms: _329  and  _330
REMARK  141  A    between atoms: _329  and  _332
REMARK  142  A    between atoms: _332  and  _333
REMARK  143  A    between atoms: _333  and  _334
REMARK  144  A    between atoms: _339  and  _341
REMARK  145  A    between atoms: _341  and  _342
REMARK  146  A    between atoms: _344  and  _346
REMARK  147  A    between atoms: _346  and  _347
REMARK  148  A    between atoms: _346  and  _349
REMARK  149  A    between atoms: _349  and  _350
REMARK  150  A    between atoms: _353  and  _355
REMARK  151  A    between atoms: _355  and  _356
REMARK  152  A    between atoms: _355  and  _358
REMARK  153  A    between atoms: _358  and  _359
REMARK  154  A    between atoms: _361  and  _363
REMARK  155  A    between atoms: _363  and  _364
REMARK  156  A    between atoms: _366  and  _368
REMARK  157  A    between atoms: _368  and  _369
REMARK  158  A    between atoms: _371  and  _373
REMARK  159  A    between atoms: _373  and  _374
REMARK  160  A    between atoms: _373  and  _376
REMARK  161  A    between atoms: _376  and  _377
REMARK  162  A    between atoms: _382  and  _384
REMARK  163  A    between atoms: _384  and  _385
REMARK  164  A    between atoms: _384  and  _387
REMARK  165  A    between atoms: _387  and  _388
REMARK  166  A    between atoms: _391  and  _393
REMARK  167  A    between atoms: _393  and  _394
REMARK  168  A    between atoms: _393  and  _396
REMARK  169  A    between atoms: _399  and  _401
REMARK  170  A    between atoms: _401  and  _402
REMARK  171  A    between atoms: _401  and  _404
REMARK  172  A    between atoms: _404  and  _405
REMARK  173  A    between atoms: _407  and  _409
REMARK  174  A    between atoms: _409  and  _410
REMARK  175  A    between atoms: _409  and  _412
REMARK  176  A    between atoms: _412  and  _413
REMARK  177  A    between atoms: _423  and  _425
REMARK  178  A    between atoms: _425  and  _426
REMARK  179  A    between atoms: _428  and  _430
REMARK  180  A    between atoms: _430  and  _431
REMARK  181  A    between atoms: _430  and  _433
REMARK  182  A    between atoms: _433  and  _434
REMARK  183  A    between atoms: _434  and  _435
REMARK  184  A    between atoms: _438  and  _440
REMARK  185  A    between atoms: _440  and  _441
REMARK  186  A    between atoms: _443  and  _445
REMARK  187  A    between atoms: _445  and  _446
REMARK  188  A    between atoms: _445  and  _448
REMARK  189  A    between atoms: _448  and  _449
REMARK  190  A    between atoms: _450  and  _452
REMARK  191  A    between atoms: _452  and  _453
REMARK  192  A    between atoms: _456  and  _458
REMARK  193  A    between atoms: _458  and  _459
REMARK  194  A    between atoms: _458  and  _461
REMARK  195  A    between atoms: _461  and  _462
REMARK  196  A    between atoms: _462  and  _463
REMARK  197  A    between atoms: _463  and  _464
REMARK  198  A    between atoms: _473  and  _475
REMARK  199  A    between atoms: _475  and  _476
REMARK  200  A    between atoms: _475  and  _478
REMARK  201  A    between atoms: _478  and  _479
REMARK  202  A    between atoms: _484  and  _485
REMARK  203  A    between atoms: _487  and  _489
REMARK  204  A    between atoms: _489  and  _490
REMARK  205  A    between atoms: _492  and  _494
REMARK  206  A    between atoms: _494  and  _495
REMARK  207  A    between atoms: _494  and  _497
REMARK  208  A    between atoms: _497  and  _498
REMARK  209  A    between atoms: _501  and  _503
REMARK  210  A    between atoms: _503  and  _504
REMARK  211  A    between atoms: _503  and  _506
REMARK  212  A    between atoms: _506  and  _507
REMARK  213  A    between atoms: _512  and  _513
REMARK  214  A    between atoms: _515  and  _517
REMARK  215  A    between atoms: _517  and  _518
REMARK  216  A    between atoms: _517  and  _520
REMARK  217  A    between atoms: _520  and  _521
REMARK                            x       y       z     vdW  Elec       q    Type
REMARK                         _______ _______ _______ _____ _____    ______ ____
ROOT
ATOM      1  CB  GLN A   1       7.897  16.567  15.440  0.00  0.00    +0.035 C 
ENDROOT
BRANCH   1   2
ATOM      2  CA  GLN A   1       7.418  16.523  13.986  0.00  0.00    +0.134 C 
BRANCH   2   3
ATOM      3  N   GLN A   1       8.400  15.836  13.150  0.00  0.00    -0.239 NA
ATOM      4  H   GLN A   1       9.388  15.782  13.471  0.00  0.00    +0.142 HD
ENDBRANCH   2   3
BRANCH   2   5
ATOM      5  C   GLN A   1       7.152  17.954  13.523  0.00  0.00    +0.224 C 
ATOM      6  O   GLN A   1       6.175  18.574  13.946  0.00  0.00    -0.287 OA
ENDBRANCH   2   5
ENDBRANCH   1   2
BRANCH   1   7
ATOM      7  CG  GLN A   1       8.856  15.448  15.832  0.00  0.00    +0.087 C 
BRANCH   7   8
ATOM      8  CD  GLN A   1       8.154  14.185  16.272  0.00  0.00    +0.219 C 
ATOM      9  OE1 GLN A   1       8.232  13.796  17.440  0.00  0.00    -0.275 OA
ATOM     10  NE2 GLN A   1       7.462  13.534  15.342  0.00  0.00    -0.329 N 
ATOM     11 HE21 GLN A   1       6.958  12.658  15.587  0.00  0.00    +0.145 HD
ATOM     12 HE22 GLN A   1       7.425  13.901  14.369  0.00  0.00    +0.145 HD
ENDBRANCH   7   8
ENDBRANCH   1   7
TORSDOF 5
REMARK  Name = ../refined-set-2016/2boh/2boh_pocket.pdb
REMARK  217 active torsions:
REMARK  status: ('A' for Active; 'I' for Inactive)
REMARK    1  A    between atoms: _1  and  _5
REMARK    2  A    between atoms: _5  and  _6
REMARK    3  A    between atoms: _5  and  _8
REMARK    4  A    between atoms: _8  and  _9
REMARK    5  A    between atoms: _12  and  _14
REMARK    6  A    between atoms: _14  and  _15
REMARK    7  A    between atoms: _14  and  _17
REMARK    8  A    between atoms: _20  and  _22
REMARK    9  A    between atoms: _22  and  _23
REMARK   10  A    between atoms: _22  and  _25
REMARK   11  A    between atoms: _25  and  _26
REMARK   12  A    between atoms: _32  and  _34
REMARK   13  A    between atoms: _34  and  _35
REMARK   14  A    between atoms: _34  and  _37
REMARK   15  A    between atoms: _39  and  _41
REMARK   16  A    between atoms: _41  and  _42
REMARK   17  A    between atoms: _41  and  _44
REMARK   18  A    between atoms: _44  and  _45
REMARK   19  A    between atoms: _50  and  _52
REMARK   20  A    between atoms: _52  and  _53
REMARK   21  A    between atoms: _52  and  _55
REMARK   22  A    between atoms: _55  and  _56
REMARK   23  A    between atoms: _56  and  _57
REMARK   24  A    between atoms: _62  and  _64
REMARK   25  A    between atoms: _64  and  _65
REMARK   26  A    between atoms: _64  and  _67
REMARK   27  A    between atoms: _67  and  _68
REMARK   28  A    between atoms: _74  and  _76
REMARK   29  A    between atoms: _76  and  _77
REMARK   30  A    between atoms: _76  and  _79
REMARK   31  A    between atoms: _79  and  _80
REMARK   32  A    between atoms: _83  and  _85
REMARK   33  A    between atoms: _85  and  _86
REMARK   34  A    between atoms: _85  and  _88
REMARK   35  A    between atoms: _88  and  _89
REMARK   36  A    between atoms: _89  and  _90
REMARK   37  A    between atoms: _90  and  _91
REMARK   38  A    between atoms: _91  and  _92
REMARK   39  A    between atoms: _96  and  _98
REMARK   40  A    between atoms: _98  and  _99
REMARK   41  A    between atoms: _98  and  _101
REMARK   42  A    between atoms: _101  and  _102
REMARK   43  A    between atoms: _102  and  _103
REMARK   44  A    between atoms: _106  and  _108
REMARK   45  A    between atoms: _108  and  _109
REMARK   46  A    between atoms: _108  and  _111
REMARK   47  A    between atoms: _111  and  _112
REMARK   48  A    between atoms: _115  and  _117
REMARK   49  A    between atoms: _117  and  _118
REMARK   50  A    between atoms: _117  and  _120
REMARK   51  A    between atoms: _120  and  _121
REMARK   52  A    between atoms: _126  and  _127
REMARK   53  A    between atoms: _129  and  _131
REMARK   54  A    between atoms: _131  and  _132
REMARK   55  A    between atoms: _131  and  _134
REMARK   56  A    between atoms: _134  and  _135
REMARK   57  A    between atoms: _138  and  _140
REMARK   58  A    between atoms: _140  and  _141
REMARK   59  A    between atoms: _140  and  _143
REMARK   60  A    between atoms: _143  and  _144
REMARK   61  A    between atoms: _147  and  _149
REMARK   62  A    between atoms: _149  and  _150
REMARK   63  A    between atoms: _149  and  _152
REMARK   64  A    between atoms: _155  and  _157
REMARK   65  A    between atoms: _157  and  _158
REMARK   66  A    between atoms: _157  and  _160
REMARK   67  A    between atoms: _160  and  _161
REMARK   68  A    between atoms: _161  and  _162
REMARK   69  A    between atoms: _162  and  _163
REMARK   70  A    between atoms: _172  and  _174
REMARK   71  A    between atoms: _174  and  _175
REMARK   72  A    between atoms: _174  and  _177
REMARK   73  A    between atoms: _177  and  _178
REMARK   74  A    between atoms: _183  and  _185
REMARK   75  A    between atoms: _185  and  _186
REMARK   76  A    between atoms: _185  and  _188
REMARK   77  A    between atoms: _188  and  _189
REMARK   78  A    between atoms: _189  and  _190
REMARK   79  A    between atoms: _193  and  _195
REMARK   80  A    between atoms: _195  and  _196
REMARK   81  A    between atoms: _195  and  _198
REMARK   82  A    between atoms: _198  and  _199
REMARK   83  A    between atoms: _199  and  _200
REMARK   84  A    between atoms: _200  and  _201
REMARK   85  A    between atoms: _201  and  _202
REMARK   86  A    between atoms: _206  and  _208
REMARK   87  A    between atoms: _208  and  _209
REMARK   88  A    between atoms: _211  and  _213
REMARK   89  A    between atoms: _213  and  _214
REMARK   90  A    between atoms: _213  and  _216
REMARK   91  A    between atoms: _219  and  _221
REMARK   92  A    between atoms: _221  and  _222
REMARK   93  A    between atoms: _221  and  _224
REMARK   94  A    between atoms: _224  and  _225
REMARK   95  A    between atoms: _227  and  _229
REMARK   96  A    between atoms: _229  and  _230
REMARK   97  A    between atoms: _229  and  _232
REMARK   98  A    between atoms: _232  and  _233
REMARK   99  A    between atoms: _235  and  _237
REMARK  100  A    between atoms: _237  and  _238
REMARK  101  A    between atoms: _237  and  _240
REMARK  102  A    between atoms: _240  and  _241
REMARK  103  A    between atoms: _247  and  _249
REMARK  104  A    between atoms: _249  and  _250
REMARK  105  A    between atoms: _249  and  _252
REMARK  106  A    between atoms: _252  and  _253
REMARK  107  A    between atoms: _256  and  _258
REMARK  108  A    between atoms: _258  and  _259
REMARK  109  A    between atoms: _258  and  _261
REMARK  110  A    between atoms: _261  and  _262
REMARK  111  A    between atoms: _262  and  _263
REMARK  112  A    between atoms: _265  and  _267
REMARK  113  A    between atoms: _267  and  _268
REMARK  114  A    between atoms: _267  and  _270
REMARK  115  A    between atoms: _270  and  _271
REMARK  116  A    between atoms: _277  and  _279
REMARK  117  A    between atoms: _279  and  _280
REMARK  118  A    between atoms: _279  and  _282
REMARK  119  A    between atoms: _284  and  _286
REMARK  120  A    between atoms: _286  and  _287
REMARK  121  A    between atoms: _290  and  _292
REMARK  122  A    between atoms: _292  and  _293
REMARK  123  A    between atoms: _295  and  _297
REMARK  124  A    between atoms: _297  and  _298
REMARK  125  A    between atoms: _297  and  _300
REMARK  126  A    between atoms: _300  and  _301
REMARK  127  A    between atoms: _301  and  _302
REMARK  128  A    between atoms: _305  and  _307
REMARK  129  A    between atoms: _307  and  _308
REMARK  130  A    between atoms: _307  and  _310
REMARK  131  A    between atoms: _310  and  _311
REMARK  132  A    between atoms: _314  and  _316
REMARK  133  A    between atoms: _316  and  _317
REMARK  134  A    between atoms: _320  and  _322
REMARK  135  A    between atoms: _322  and  _323
REMARK  136  A    between atoms: _322  and  _325
REMARK  137  A    between atoms: _325  and  _326
REMARK  138  A    between atoms: _326  and  _449
REMARK  139  A    between atoms: _327  and  _329
REMARK  140  A    between atoms: _329  and  _330
REMARK  141  A    between atoms: _329  and  _332
REMARK  142  A    between atoms: _332  and  _333
REMARK  143  A    between atoms: _333  and  _334
REMARK  144  A    between atoms: _339  and  _341
REMARK  145  A    between atoms: _341  and  _342
REMARK  146  A    between atoms: _344  and  _346
REMARK  147  A    between atoms: _346  and  _347
REMARK  148  A    between atoms: _346  and  _349
REMARK  149  A    between atoms: _349  and  _350
REMARK  150  A    between atoms: _353  and  _355
REMARK  151  A    between atoms: _355  and  _356
REMARK  152  A    between atoms: _355  and  _358
REMARK  153  A    between atoms: _358  and  _359
REMARK  154  A    between atoms: _361  and  _363
REMARK  155  A    between atoms: _363  and  _364
REMARK  156  A    between atoms: _366  and  _368
REMARK  157  A    between atoms: _368  and  _369
REMARK  158  A    between atoms: _371  and  _373
REMARK  159  A    between atoms: _373  and  _374
REMARK  160  A    between atoms: _373  and  _376
REMARK  161  A    between atoms: _376  and  _377
REMARK  162  A    between atoms: _382  and  _384
REMARK  163  A    between atoms: _384  and  _385
REMARK  164  A    between atoms: _384  and  _387
REMARK  165  A    between atoms: _387  and  _388
REMARK  166  A    between atoms: _391  and  _393
REMARK  167  A    between atoms: _393  and  _394
REMARK  168  A    between atoms: _393  and  _396
REMARK  169  A    between atoms: _399  and  _401
REMARK  170  A    between atoms: _401  and  _402
REMARK  171  A    between atoms: _401  and  _404
REMARK  172  A    between atoms: _404  and  _405
REMARK  173  A    between atoms: _407  and  _409
REMARK  174  A    between atoms: _409  and  _410
REMARK  175  A    between atoms: _409  and  _412
REMARK  176  A    between atoms: _412  and  _413
REMARK  177  A    between atoms: _423  and  _425
REMARK  178  A    between atoms: _425  and  _426
REMARK  179  A    between atoms: _428  and  _430
REMARK  180  A    between atoms: _430  and  _431
REMARK  181  A    between atoms: _430  and  _433
REMARK  182  A    between atoms: _433  and  _434
REMARK  183  A    between atoms: _434  and  _435
REMARK  184  A    between atoms: _438  and  _440
REMARK  185  A    between atoms: _440  and  _441
REMARK  186  A    between atoms: _443  and  _445
REMARK  187  A    between atoms: _445  and  _446
REMARK  188  A    between atoms: _445  and  _448
REMARK  189  A    between atoms: _448  and  _449
REMARK  190  A    between atoms: _450  and  _452
REMARK  191  A    between atoms: _452  and  _453
REMARK  192  A    between atoms: _456  and  _458
REMARK  193  A    between atoms: _458  and  _459
REMARK  194  A    between atoms: _458  and  _461
REMARK  195  A    between atoms: _461  and  _462
REMARK  196  A    between atoms: _462  and  _463
REMARK  197  A    between atoms: _463  and  _464
REMARK  198  A    between atoms: _473  and  _475
REMARK  199  A    between atoms: _475  and  _476
REMARK  200  A    between atoms: _475  and  _478
REMARK  201  A    between atoms: _478  and  _479
REMARK  202  A    between atoms: _484  and  _485
REMARK  203  A    between atoms: _487  and  _489
REMARK  204  A    between atoms: _489  and  _490
REMARK  205  A    between atoms: _492  and  _494
REMARK  206  A    between atoms: _494  and  _495
REMARK  207  A    between atoms: _494  and  _497
REMARK  208  A    between atoms: _497  and  _498
REMARK  209  A    between atoms: _501  and  _503
REMARK  210  A    between atoms: _503  and  _504
REMARK  211  A    between atoms: _503  and  _506
REMARK  212  A    between atoms: _506  and  _507
REMARK  213  A    between atoms: _512  and  _513
REMARK  214  A    between atoms: _515  and  _517
REMARK  215  A    between atoms: _517  and  _518
REMARK  216  A    between atoms: _517  and  _520
REMARK  217  A    between atoms: _520  and  _521
REMARK                            x       y       z     vdW  Elec       q    Type
REMARK                         _______ _______ _______ _____ _____    ______ ____
ROOT
ATOM      1  CA  GLU A   4       9.288   0.982  11.457  0.00  0.00    +0.149 C 
ENDROOT
BRANCH   1   4
ATOM      2  C   LYS A   3       9.543   3.383  11.760  0.00  0.00    +0.241 C 
ATOM      3  O   LYS A   3       8.785   3.395  12.727  0.00  0.00    -0.273 OA
ATOM      4  N   GLU A   4       9.851   2.276  11.100  0.00  0.00    -0.297 N 
ATOM      5  H   GLU A   4      10.516   2.333  10.302  0.00  0.00    +0.150 HD
BRANCH   2   6
ATOM      6  CA  LYS A   3      10.176   4.671  11.244  0.00  0.00    +0.149 C 
BRANCH   6   9
ATOM      7  C   THR A   2      12.417   3.811  10.781  0.00  0.00    +0.243 C 
ATOM      8  O   THR A   2      12.588   3.471  11.955  0.00  0.00    -0.273 OA
ATOM      9  N   LYS A   3      11.296   4.389  10.348  0.00  0.00    -0.297 N 
ATOM     10  H   LYS A   3      11.216   4.647   9.344  0.00  0.00    +0.150 HD
BRANCH   7  11
ATOM     11  CA  THR A   2      13.508   3.583   9.735  0.00  0.00    +0.176 C 
BRANCH  11  13
ATOM     12  C   PHE A   1      15.496   4.927   9.319  0.00  0.00    +0.239 C 
ATOM     13  N   THR A   2      14.772   4.180  10.147  0.00  0.00    -0.295 N 
ATOM     14  H   THR A   2      15.117   4.017  11.115  0.00  0.00    +0.150 HD
ATOM     15  O   PHE A   1      15.147   5.183   8.168  0.00  0.00    -0.274 OA
BRANCH  12  16
ATOM     16  CA  PHE A   1      16.794   5.489   9.882  0.00  0.00    +0.149 C 
BRANCH  16  17
ATOM     17  N   PHE A   1      17.897   5.362   8.930  0.00  0.00    -0.238 NA
ATOM     18  H   PHE A   1      18.341   6.216   8.537  0.00  0.00    +0.142 HD
ENDBRANCH  16  17
BRANCH  16  19
ATOM     19  CB  PHE A   1      16.558   6.950  10.279  0.00  0.00    +0.053 C 
BRANCH  19  20
ATOM     20  CG  PHE A   1      15.297   7.158  11.079  0.00  0.00    -0.020 A 
ATOM     21  CD2 PHE A   1      15.164   6.608  12.354  0.00  0.00    -0.004 A 
ATOM     22  CE2 PHE A   1      13.980   6.748  13.077  0.00  0.00    -0.000 A 
ATOM     23  CZ  PHE A   1      12.908   7.446  12.524  0.00  0.00    -0.000 A 
ATOM     24  CE1 PHE A   1      13.029   8.001  11.252  0.00  0.00    -0.000 A 
ATOM     25  CD1 PHE A   1      14.221   7.855  10.538  0.00  0.00    -0.004 A 
ENDBRANCH  19  20
ENDBRANCH  16  19
ENDBRANCH  12  16
ENDBRANCH  11  13
BRANCH  11  26
ATOM     26  CB  THR A   2      13.672   2.062   9.482  0.00  0.00    +0.137 C 
ATOM     27  CG2 THR A   2      14.497   1.413  10.590  0.00  0.00    +0.034 C 
BRANCH  26  28
ATOM     28  OG1 THR A   2      12.381   1.444   9.418  0.00  0.00    -0.382 OA
ATOM     29  HG1 THR A   2      12.489   0.473   9.256  0.00  0.00    +0.210 HD
ENDBRANCH  26  28
ENDBRANCH  11  26
ENDBRANCH   7  11
ENDBRANCH   6   9
BRANCH   6  30
ATOM     30  CB  LYS A   3       9.079   5.472  10.528  0.00  0.00    +0.029 C 
BRANCH  30  31
ATOM     31  CG  LYS A   3       9.534   6.675   9.659  0.00  0.00    +0.000 C 
BRANCH  31  32
ATOM     32  CD  LYS A   3       9.755   6.256   8.186  0.00  0.00    -0.024 C 
BRANCH  32  33
ATOM     33  CE  LYS A   3       9.551   7.449   7.214  0.00  0.00    -0.086 C 
BRANCH  33  34
ATOM     34  NZ  LYS A   3       8.123   7.900   7.152  0.00  0.00    +0.380 N 
ATOM     35  HZ1 LYS A   3       7.814   8.201   8.099  0.00  0.00    -0.089 HD
ATOM     36  HZ2 LYS A   3       7.526   7.114   6.825  0.00  0.00    -0.089 HD
ATOM     37  HZ3 LYS A   3       8.041   8.698   6.490  0.00  0.00    -0.089 HD
ENDBRANCH  33  34
ENDBRANCH  32  33
ENDBRANCH  31  32
ENDBRANCH  30  31
ENDBRANCH   6  30
ENDBRANCH   2   6
ENDBRANCH   1   4
BRANCH   1  38
ATOM     38  C   GLU A   4       9.789   0.458  12.797  0.00  0.00    +0.241 C 
ATOM     39  O   GLU A   4       9.033  -0.136  13.570  0.00  0.00    -0.273 OA
ATOM     40  N   THR A   5      11.069   0.682  13.063  0.00  0.00    -0.295 N 
ATOM     41  H   THR A   5      11.642   1.219  12.381  0.00  0.00    +0.150 HD
BRANCH  40  42
ATOM     42  CA  THR A   5      11.690   0.196  14.283  0.00  0.00    +0.176 C 
BRANCH  42  43
ATOM     43  C   THR A   5      12.437   1.271  15.061  0.00  0.00    +0.243 C 
ATOM     44  O   THR A   5      12.910   1.016  16.167  0.00  0.00    -0.273 OA
ATOM     45  N   TYR A   6      12.547   2.460  14.475  0.00  0.00    -0.297 N 
ATOM     46  H   TYR A   6      12.106   2.604  13.544  0.00  0.00    +0.150 HD
BRANCH  45  47
ATOM     47  CA  TYR A   6      13.266   3.571  15.093  0.00  0.00    +0.153 C 
BRANCH  47  48
ATOM     48  C   TYR A   6      14.748   3.266  15.234  0.00  0.00    +0.241 C 
ATOM     49  O   TYR A   6      15.420   3.812  16.109  0.00  0.00    -0.273 OA
ATOM     50  N   ASP A   7      15.254   2.385  14.375  0.00  0.00    -0.298 N 
ATOM     51  H   ASP A   7      14.629   1.941  13.672  0.00  0.00    +0.150 HD
BRANCH  50  52
ATOM     52  CA  ASP A   7      16.665   2.032  14.401  0.00  0.00    +0.148 C 
BRANCH  52  53
ATOM     53  C   ASP A   7      17.401   3.194  13.732  0.00  0.00    +0.227 C 
ATOM     54  O   ASP A   7      16.857   3.840  12.834  0.00  0.00    -0.286 OA
ENDBRANCH  52  53
BRANCH  52  55
ATOM     55  CB  ASP A   7      16.895   0.718  13.647  0.00  0.00    +0.142 C 
BRANCH  55  56
ATOM     56  CG  ASP A   7      18.265   0.128  13.913  0.00  0.00    +0.367 C 
ATOM     57  OD2 ASP A   7      18.884   0.487  14.939  0.00  0.00    -0.246 OA
ATOM     58  OD1 ASP A   7      18.723  -0.704  13.106  0.00  0.00    -0.246 OA
ENDBRANCH  55  56
ENDBRANCH  52  55
ENDBRANCH  50  52
ENDBRANCH  47  48
BRANCH  47  59
ATOM     59  CB  TYR A   6      12.675   3.913  16.464  0.00  0.00    +0.055 C 
BRANCH  59  60
ATOM     60  CG  TYR A   6      11.598   4.967  16.401  0.00  0.00    -0.020 A 
ATOM     61  CD2 TYR A   6      11.478   5.931  17.404  0.00  0.00    -0.001 A 
ATOM     62  CE2 TYR A   6      10.466   6.890  17.363  0.00  0.00    +0.036 A 
ATOM     63  CZ  TYR A   6       9.570   6.887  16.310  0.00  0.00    +0.134 A 
ATOM     64  CE1 TYR A   6       9.670   5.944  15.300  0.00  0.00    +0.036 A 
ATOM     65  CD1 TYR A   6      10.679   4.991  15.351  0.00  0.00    -0.001 A 
BRANCH  63  66
ATOM     66  OH  TYR A   6       8.572   7.827  16.266  0.00  0.00    -0.506 OA
ATOM     67  HH  TYR A   6       8.023   7.686  15.454  0.00  0.00    +0.292 HD
ENDBRANCH  63  66
ENDBRANCH  59  60
ENDBRANCH  47  59
ENDBRANCH  45  47
ENDBRANCH  42  43
BRANCH  42  68
ATOM     68  CB  THR A   5      12.697  -0.899  13.948  0.00  0.00    +0.137 C 
ATOM     69  CG2 THR A   5      11.996  -2.103  13.327  0.00  0.00    +0.034 C 
BRANCH  68  70
ATOM     70  OG1 THR A   5      13.653  -0.376  13.016  0.00  0.00    -0.382 OA
ATOM     71  HG1 THR A   5      14.312  -1.080  12.791  0.00  0.00    +0.210 HD
ENDBRANCH  68  70
ENDBRANCH  42  68
ENDBRANCH  40  42
ENDBRANCH   1  38
BRANCH   1  72
ATOM     72  CB  GLU A   4       9.624  -0.043  10.368  0.00  0.00    +0.041 C 
BRANCH  72  73
ATOM     73  CG  GLU A   4       9.304   0.406   8.940  0.00  0.00    +0.116 C 
BRANCH  73  74
ATOM     74  CD  GLU A   4       9.971  -0.475   7.892  0.00  0.00    +0.365 C 
ATOM     75  OE2 GLU A   4       9.705  -1.699   7.875  0.00  0.00    -0.246 OA
ATOM     76  OE1 GLU A   4      10.765   0.059   7.086  0.00  0.00    -0.246 OA
ENDBRANCH  73  74
ENDBRANCH  72  73
ENDBRANCH   1  72
TORSDOF 33
REMARK  Name = ../refined-set-2016/2boh/2boh_pocket.pdb
REMARK  217 active torsions:
REMARK  status: ('A' for Active; 'I' for Inactive)
REMARK    1  A    between atoms: _1  and  _5
REMARK    2  A    between atoms: _5  and  _6
REMARK    3  A    between atoms: _5  and  _8
REMARK    4  A    between atoms: _8  and  _9
REMARK    5  A    between atoms: _12  and  _14
REMARK    6  A    between atoms: _14  and  _15
REMARK    7  A    between atoms: _14  and  _17
REMARK    8  A    between atoms: _20  and  _22
REMARK    9  A    between atoms: _22  and  _23
REMARK   10  A    between atoms: _22  and  _25
REMARK   11  A    between atoms: _25  and  _26
REMARK   12  A    between atoms: _32  and  _34
REMARK   13  A    between atoms: _34  and  _35
REMARK   14  A    between atoms: _34  and  _37
REMARK   15  A    between atoms: _39  and  _41
REMARK   16  A    between atoms: _41  and  _42
REMARK   17  A    between atoms: _41  and  _44
REMARK   18  A    between atoms: _44  and  _45
REMARK   19  A    between atoms: _50  and  _52
REMARK   20  A    between atoms: _52  and  _53
REMARK   21  A    between atoms: _52  and  _55
REMARK   22  A    between atoms: _55  and  _56
REMARK   23  A    between atoms: _56  and  _57
REMARK   24  A    between atoms: _62  and  _64
REMARK   25  A    between atoms: _64  and  _65
REMARK   26  A    between atoms: _64  and  _67
REMARK   27  A    between atoms: _67  and  _68
REMARK   28  A    between atoms: _74  and  _76
REMARK   29  A    between atoms: _76  and  _77
REMARK   30  A    between atoms: _76  and  _79
REMARK   31  A    between atoms: _79  and  _80
REMARK   32  A    between atoms: _83  and  _85
REMARK   33  A    between atoms: _85  and  _86
REMARK   34  A    between atoms: _85  and  _88
REMARK   35  A    between atoms: _88  and  _89
REMARK   36  A    between atoms: _89  and  _90
REMARK   37  A    between atoms: _90  and  _91
REMARK   38  A    between atoms: _91  and  _92
REMARK   39  A    between atoms: _96  and  _98
REMARK   40  A    between atoms: _98  and  _99
REMARK   41  A    between atoms: _98  and  _101
REMARK   42  A    between atoms: _101  and  _102
REMARK   43  A    between atoms: _102  and  _103
REMARK   44  A    between atoms: _106  and  _108
REMARK   45  A    between atoms: _108  and  _109
REMARK   46  A    between atoms: _108  and  _111
REMARK   47  A    between atoms: _111  and  _112
REMARK   48  A    between atoms: _115  and  _117
REMARK   49  A    between atoms: _117  and  _118
REMARK   50  A    between atoms: _117  and  _120
REMARK   51  A    between atoms: _120  and  _121
REMARK   52  A    between atoms: _126  and  _127
REMARK   53  A    between atoms: _129  and  _131
REMARK   54  A    between atoms: _131  and  _132
REMARK   55  A    between atoms: _131  and  _134
REMARK   56  A    between atoms: _134  and  _135
REMARK   57  A    between atoms: _138  and  _140
REMARK   58  A    between atoms: _140  and  _141
REMARK   59  A    between atoms: _140  and  _143
REMARK   60  A    between atoms: _143  and  _144
REMARK   61  A    between atoms: _147  and  _149
REMARK   62  A    between atoms: _149  and  _150
REMARK   63  A    between atoms: _149  and  _152
REMARK   64  A    between atoms: _155  and  _157
REMARK   65  A    between atoms: _157  and  _158
REMARK   66  A    between atoms: _157  and  _160
REMARK   67  A    between atoms: _160  and  _161
REMARK   68  A    between atoms: _161  and  _162
REMARK   69  A    between atoms: _162  and  _163
REMARK   70  A    between atoms: _172  and  _174
REMARK   71  A    between atoms: _174  and  _175
REMARK   72  A    between atoms: _174  and  _177
REMARK   73  A    between atoms: _177  and  _178
REMARK   74  A    between atoms: _183  and  _185
REMARK   75  A    between atoms: _185  and  _186
REMARK   76  A    between atoms: _185  and  _188
REMARK   77  A    between atoms: _188  and  _189
REMARK   78  A    between atoms: _189  and  _190
REMARK   79  A    between atoms: _193  and  _195
REMARK   80  A    between atoms: _195  and  _196
REMARK   81  A    between atoms: _195  and  _198
REMARK   82  A    between atoms: _198  and  _199
REMARK   83  A    between atoms: _199  and  _200
REMARK   84  A    between atoms: _200  and  _201
REMARK   85  A    between atoms: _201  and  _202
REMARK   86  A    between atoms: _206  and  _208
REMARK   87  A    between atoms: _208  and  _209
REMARK   88  A    between atoms: _211  and  _213
REMARK   89  A    between atoms: _213  and  _214
REMARK   90  A    between atoms: _213  and  _216
REMARK   91  A    between atoms: _219  and  _221
REMARK   92  A    between atoms: _221  and  _222
REMARK   93  A    between atoms: _221  and  _224
REMARK   94  A    between atoms: _224  and  _225
REMARK   95  A    between atoms: _227  and  _229
REMARK   96  A    between atoms: _229  and  _230
REMARK   97  A    between atoms: _229  and  _232
REMARK   98  A    between atoms: _232  and  _233
REMARK   99  A    between atoms: _235  and  _237
REMARK  100  A    between atoms: _237  and  _238
REMARK  101  A    between atoms: _237  and  _240
REMARK  102  A    between atoms: _240  and  _241
REMARK  103  A    between atoms: _247  and  _249
REMARK  104  A    between atoms: _249  and  _250
REMARK  105  A    between atoms: _249  and  _252
REMARK  106  A    between atoms: _252  and  _253
REMARK  107  A    between atoms: _256  and  _258
REMARK  108  A    between atoms: _258  and  _259
REMARK  109  A    between atoms: _258  and  _261
REMARK  110  A    between atoms: _261  and  _262
REMARK  111  A    between atoms: _262  and  _263
REMARK  112  A    between atoms: _265  and  _267
REMARK  113  A    between atoms: _267  and  _268
REMARK  114  A    between atoms: _267  and  _270
REMARK  115  A    between atoms: _270  and  _271
REMARK  116  A    between atoms: _277  and  _279
REMARK  117  A    between atoms: _279  and  _280
REMARK  118  A    between atoms: _279  and  _282
REMARK  119  A    between atoms: _284  and  _286
REMARK  120  A    between atoms: _286  and  _287
REMARK  121  A    between atoms: _290  and  _292
REMARK  122  A    between atoms: _292  and  _293
REMARK  123  A    between atoms: _295  and  _297
REMARK  124  A    between atoms: _297  and  _298
REMARK  125  A    between atoms: _297  and  _300
REMARK  126  A    between atoms: _300  and  _301
REMARK  127  A    between atoms: _301  and  _302
REMARK  128  A    between atoms: _305  and  _307
REMARK  129  A    between atoms: _307  and  _308
REMARK  130  A    between atoms: _307  and  _310
REMARK  131  A    between atoms: _310  and  _311
REMARK  132  A    between atoms: _314  and  _316
REMARK  133  A    between atoms: _316  and  _317
REMARK  134  A    between atoms: _320  and  _322
REMARK  135  A    between atoms: _322  and  _323
REMARK  136  A    between atoms: _322  and  _325
REMARK  137  A    between atoms: _325  and  _326
REMARK  138  A    between atoms: _326  and  _449
REMARK  139  A    between atoms: _327  and  _329
REMARK  140  A    between atoms: _329  and  _330
REMARK  141  A    between atoms: _329  and  _332
REMARK  142  A    between atoms: _332  and  _333
REMARK  143  A    between atoms: _333  and  _334
REMARK  144  A    between atoms: _339  and  _341
REMARK  145  A    between atoms: _341  and  _342
REMARK  146  A    between atoms: _344  and  _346
REMARK  147  A    between atoms: _346  and  _347
REMARK  148  A    between atoms: _346  and  _349
REMARK  149  A    between atoms: _349  and  _350
REMARK  150  A    between atoms: _353  and  _355
REMARK  151  A    between atoms: _355  and  _356
REMARK  152  A    between atoms: _355  and  _358
REMARK  153  A    between atoms: _358  and  _359
REMARK  154  A    between atoms: _361  and  _363
REMARK  155  A    between atoms: _363  and  _364
REMARK  156  A    between atoms: _366  and  _368
REMARK  157  A    between atoms: _368  and  _369
REMARK  158  A    between atoms: _371  and  _373
REMARK  159  A    between atoms: _373  and  _374
REMARK  160  A    between atoms: _373  and  _376
REMARK  161  A    between atoms: _376  and  _377
REMARK  162  A    between atoms: _382  and  _384
REMARK  163  A    between atoms: _384  and  _385
REMARK  164  A    between atoms: _384  and  _387
REMARK  165  A    between atoms: _387  and  _388
REMARK  166  A    between atoms: _391  and  _393
REMARK  167  A    between atoms: _393  and  _394
REMARK  168  A    between atoms: _393  and  _396
REMARK  169  A    between atoms: _399  and  _401
REMARK  170  A    between atoms: _401  and  _402
REMARK  171  A    between atoms: _401  and  _404
REMARK  172  A    between atoms: _404  and  _405
REMARK  173  A    between atoms: _407  and  _409
REMARK  174  A    between atoms: _409  and  _410
REMARK  175  A    between atoms: _409  and  _412
REMARK  176  A    between atoms: _412  and  _413
REMARK  177  A    between atoms: _423  and  _425
REMARK  178  A    between atoms: _425  and  _426
REMARK  179  A    between atoms: _428  and  _430
REMARK  180  A    between atoms: _430  and  _431
REMARK  181  A    between atoms: _430  and  _433
REMARK  182  A    between atoms: _433  and  _434
REMARK  183  A    between atoms: _434  and  _435
REMARK  184  A    between atoms: _438  and  _440
REMARK  185  A    between atoms: _440  and  _441
REMARK  186  A    between atoms: _443  and  _445
REMARK  187  A    between atoms: _445  and  _446
REMARK  188  A    between atoms: _445  and  _448
REMARK  189  A    between atoms: _448  and  _449
REMARK  190  A    between atoms: _450  and  _452
REMARK  191  A    between atoms: _452  and  _453
REMARK  192  A    between atoms: _456  and  _458
REMARK  193  A    between atoms: _458  and  _459
REMARK  194  A    between atoms: _458  and  _461
REMARK  195  A    between atoms: _461  and  _462
REMARK  196  A    between atoms: _462  and  _463
REMARK  197  A    between atoms: _463  and  _464
REMARK  198  A    between atoms: _473  and  _475
REMARK  199  A    between atoms: _475  and  _476
REMARK  200  A    between atoms: _475  and  _478
REMARK  201  A    between atoms: _478  and  _479
REMARK  202  A    between atoms: _484  and  _485
REMARK  203  A    between atoms: _487  and  _489
REMARK  204  A    between atoms: _489  and  _490
REMARK  205  A    between atoms: _492  and  _494
REMARK  206  A    between atoms: _494  and  _495
REMARK  207  A    between atoms: _494  and  _497
REMARK  208  A    between atoms: _497  and  _498
REMARK  209  A    between atoms: _501  and  _503
REMARK  210  A    between atoms: _503  and  _504
REMARK  211  A    between atoms: _503  and  _506
REMARK  212  A    between atoms: _506  and  _507
REMARK  213  A    between atoms: _512  and  _513
REMARK  214  A    between atoms: _515  and  _517
REMARK  215  A    between atoms: _517  and  _518
REMARK  216  A    between atoms: _517  and  _520
REMARK  217  A    between atoms: _520  and  _521
REMARK                            x       y       z     vdW  Elec       q    Type
REMARK                         _______ _______ _______ _____ _____    ______ ____
ROOT
ATOM      1  CA  ASP A   1      17.371   7.272  15.413  0.00  0.00    +0.144 C 
ENDROOT
BRANCH   1   2
ATOM      2  N   ASP A   1      18.092   6.047  15.082  0.00  0.00    -0.239 NA
ATOM      3  H   ASP A   1      18.179   5.289  15.789  0.00  0.00    +0.142 HD
ENDBRANCH   1   2
BRANCH   1   4
ATOM      4  C   ASP A   1      18.386   8.324  15.846  0.00  0.00    +0.225 C 
ATOM      5  O   ASP A   1      18.557   8.597  17.039  0.00  0.00    -0.287 OA
ENDBRANCH   1   4
BRANCH   1   6
ATOM      6  CB  ASP A   1      16.349   7.015  16.529  0.00  0.00    +0.139 C 
BRANCH   6   7
ATOM      7  CG  ASP A   1      15.329   8.141  16.661  0.00  0.00    +0.367 C 
ATOM      8  OD2 ASP A   1      14.643   8.204  17.702  0.00  0.00    -0.246 OA
ATOM      9  OD1 ASP A   1      15.204   8.959  15.720  0.00  0.00    -0.246 OA
ENDBRANCH   6   7
ENDBRANCH   1   6
TORSDOF 4
REMARK  Name = ../refined-set-2016/2boh/2boh_pocket.pdb
REMARK  217 active torsions:
REMARK  status: ('A' for Active; 'I' for Inactive)
REMARK    1  A    between atoms: _1  and  _5
REMARK    2  A    between atoms: _5  and  _6
REMARK    3  A    between atoms: _5  and  _8
REMARK    4  A    between atoms: _8  and  _9
REMARK    5  A    between atoms: _12  and  _14
REMARK    6  A    between atoms: _14  and  _15
REMARK    7  A    between atoms: _14  and  _17
REMARK    8  A    between atoms: _20  and  _22
REMARK    9  A    between atoms: _22  and  _23
REMARK   10  A    between atoms: _22  and  _25
REMARK   11  A    between atoms: _25  and  _26
REMARK   12  A    between atoms: _32  and  _34
REMARK   13  A    between atoms: _34  and  _35
REMARK   14  A    between atoms: _34  and  _37
REMARK   15  A    between atoms: _39  and  _41
REMARK   16  A    between atoms: _41  and  _42
REMARK   17  A    between atoms: _41  and  _44
REMARK   18  A    between atoms: _44  and  _45
REMARK   19  A    between atoms: _50  and  _52
REMARK   20  A    between atoms: _52  and  _53
REMARK   21  A    between atoms: _52  and  _55
REMARK   22  A    between atoms: _55  and  _56
REMARK   23  A    between atoms: _56  and  _57
REMARK   24  A    between atoms: _62  and  _64
REMARK   25  A    between atoms: _64  and  _65
REMARK   26  A    between atoms: _64  and  _67
REMARK   27  A    between atoms: _67  and  _68
REMARK   28  A    between atoms: _74  and  _76
REMARK   29  A    between atoms: _76  and  _77
REMARK   30  A    between atoms: _76  and  _79
REMARK   31  A    between atoms: _79  and  _80
REMARK   32  A    between atoms: _83  and  _85
REMARK   33  A    between atoms: _85  and  _86
REMARK   34  A    between atoms: _85  and  _88
REMARK   35  A    between atoms: _88  and  _89
REMARK   36  A    between atoms: _89  and  _90
REMARK   37  A    between atoms: _90  and  _91
REMARK   38  A    between atoms: _91  and  _92
REMARK   39  A    between atoms: _96  and  _98
REMARK   40  A    between atoms: _98  and  _99
REMARK   41  A    between atoms: _98  and  _101
REMARK   42  A    between atoms: _101  and  _102
REMARK   43  A    between atoms: _102  and  _103
REMARK   44  A    between atoms: _106  and  _108
REMARK   45  A    between atoms: _108  and  _109
REMARK   46  A    between atoms: _108  and  _111
REMARK   47  A    between atoms: _111  and  _112
REMARK   48  A    between atoms: _115  and  _117
REMARK   49  A    between atoms: _117  and  _118
REMARK   50  A    between atoms: _117  and  _120
REMARK   51  A    between atoms: _120  and  _121
REMARK   52  A    between atoms: _126  and  _127
REMARK   53  A    between atoms: _129  and  _131
REMARK   54  A    between atoms: _131  and  _132
REMARK   55  A    between atoms: _131  and  _134
REMARK   56  A    between atoms: _134  and  _135
REMARK   57  A    between atoms: _138  and  _140
REMARK   58  A    between atoms: _140  and  _141
REMARK   59  A    between atoms: _140  and  _143
REMARK   60  A    between atoms: _143  and  _144
REMARK   61  A    between atoms: _147  and  _149
REMARK   62  A    between atoms: _149  and  _150
REMARK   63  A    between atoms: _149  and  _152
REMARK   64  A    between atoms: _155  and  _157
REMARK   65  A    between atoms: _157  and  _158
REMARK   66  A    between atoms: _157  and  _160
REMARK   67  A    between atoms: _160  and  _161
REMARK   68  A    between atoms: _161  and  _162
REMARK   69  A    between atoms: _162  and  _163
REMARK   70  A    between atoms: _172  and  _174
REMARK   71  A    between atoms: _174  and  _175
REMARK   72  A    between atoms: _174  and  _177
REMARK   73  A    between atoms: _177  and  _178
REMARK   74  A    between atoms: _183  and  _185
REMARK   75  A    between atoms: _185  and  _186
REMARK   76  A    between atoms: _185  and  _188
REMARK   77  A    between atoms: _188  and  _189
REMARK   78  A    between atoms: _189  and  _190
REMARK   79  A    between atoms: _193  and  _195
REMARK   80  A    between atoms: _195  and  _196
REMARK   81  A    between atoms: _195  and  _198
REMARK   82  A    between atoms: _198  and  _199
REMARK   83  A    between atoms: _199  and  _200
REMARK   84  A    between atoms: _200  and  _201
REMARK   85  A    between atoms: _201  and  _202
REMARK   86  A    between atoms: _206  and  _208
REMARK   87  A    between atoms: _208  and  _209
REMARK   88  A    between atoms: _211  and  _213
REMARK   89  A    between atoms: _213  and  _214
REMARK   90  A    between atoms: _213  and  _216
REMARK   91  A    between atoms: _219  and  _221
REMARK   92  A    between atoms: _221  and  _222
REMARK   93  A    between atoms: _221  and  _224
REMARK   94  A    between atoms: _224  and  _225
REMARK   95  A    between atoms: _227  and  _229
REMARK   96  A    between atoms: _229  and  _230
REMARK   97  A    between atoms: _229  and  _232
REMARK   98  A    between atoms: _232  and  _233
REMARK   99  A    between atoms: _235  and  _237
REMARK  100  A    between atoms: _237  and  _238
REMARK  101  A    between atoms: _237  and  _240
REMARK  102  A    between atoms: _240  and  _241
REMARK  103  A    between atoms: _247  and  _249
REMARK  104  A    between atoms: _249  and  _250
REMARK  105  A    between atoms: _249  and  _252
REMARK  106  A    between atoms: _252  and  _253
REMARK  107  A    between atoms: _256  and  _258
REMARK  108  A    between atoms: _258  and  _259
REMARK  109  A    between atoms: _258  and  _261
REMARK  110  A    between atoms: _261  and  _262
REMARK  111  A    between atoms: _262  and  _263
REMARK  112  A    between atoms: _265  and  _267
REMARK  113  A    between atoms: _267  and  _268
REMARK  114  A    between atoms: _267  and  _270
REMARK  115  A    between atoms: _270  and  _271
REMARK  116  A    between atoms: _277  and  _279
REMARK  117  A    between atoms: _279  and  _280
REMARK  118  A    between atoms: _279  and  _282
REMARK  119  A    between atoms: _284  and  _286
REMARK  120  A    between atoms: _286  and  _287
REMARK  121  A    between atoms: _290  and  _292
REMARK  122  A    between atoms: _292  and  _293
REMARK  123  A    between atoms: _295  and  _297
REMARK  124  A    between atoms: _297  and  _298
REMARK  125  A    between atoms: _297  and  _300
REMARK  126  A    between atoms: _300  and  _301
REMARK  127  A    between atoms: _301  and  _302
REMARK  128  A    between atoms: _305  and  _307
REMARK  129  A    between atoms: _307  and  _308
REMARK  130  A    between atoms: _307  and  _310
REMARK  131  A    between atoms: _310  and  _311
REMARK  132  A    between atoms: _314  and  _316
REMARK  133  A    between atoms: _316  and  _317
REMARK  134  A    between atoms: _320  and  _322
REMARK  135  A    between atoms: _322  and  _323
REMARK  136  A    between atoms: _322  and  _325
REMARK  137  A    between atoms: _325  and  _326
REMARK  138  A    between atoms: _326  and  _449
REMARK  139  A    between atoms: _327  and  _329
REMARK  140  A    between atoms: _329  and  _330
REMARK  141  A    between atoms: _329  and  _332
REMARK  142  A    between atoms: _332  and  _333
REMARK  143  A    between atoms: _333  and  _334
REMARK  144  A    between atoms: _339  and  _341
REMARK  145  A    between atoms: _341  and  _342
REMARK  146  A    between atoms: _344  and  _346
REMARK  147  A    between atoms: _346  and  _347
REMARK  148  A    between atoms: _346  and  _349
REMARK  149  A    between atoms: _349  and  _350
REMARK  150  A    between atoms: _353  and  _355
REMARK  151  A    between atoms: _355  and  _356
REMARK  152  A    between atoms: _355  and  _358
REMARK  153  A    between atoms: _358  and  _359
REMARK  154  A    between atoms: _361  and  _363
REMARK  155  A    between atoms: _363  and  _364
REMARK  156  A    between atoms: _366  and  _368
REMARK  157  A    between atoms: _368  and  _369
REMARK  158  A    between atoms: _371  and  _373
REMARK  159  A    between atoms: _373  and  _374
REMARK  160  A    between atoms: _373  and  _376
REMARK  161  A    between atoms: _376  and  _377
REMARK  162  A    between atoms: _382  and  _384
REMARK  163  A    between atoms: _384  and  _385
REMARK  164  A    between atoms: _384  and  _387
REMARK  165  A    between atoms: _387  and  _388
REMARK  166  A    between atoms: _391  and  _393
REMARK  167  A    between atoms: _393  and  _394
REMARK  168  A    between atoms: _393  and  _396
REMARK  169  A    between atoms: _399  and  _401
REMARK  170  A    between atoms: _401  and  _402
REMARK  171  A    between atoms: _401  and  _404
REMARK  172  A    between atoms: _404  and  _405
REMARK  173  A    between atoms: _407  and  _409
REMARK  174  A    between atoms: _409  and  _410
REMARK  175  A    between atoms: _409  and  _412
REMARK  176  A    between atoms: _412  and  _413
REMARK  177  A    between atoms: _423  and  _425
REMARK  178  A    between atoms: _425  and  _426
REMARK  179  A    between atoms: _428  and  _430
REMARK  180  A    between atoms: _430  and  _431
REMARK  181  A    between atoms: _430  and  _433
REMARK  182  A    between atoms: _433  and  _434
REMARK  183  A    between atoms: _434  and  _435
REMARK  184  A    between atoms: _438  and  _440
REMARK  185  A    between atoms: _440  and  _441
REMARK  186  A    between atoms: _443  and  _445
REMARK  187  A    between atoms: _445  and  _446
REMARK  188  A    between atoms: _445  and  _448
REMARK  189  A    between atoms: _448  and  _449
REMARK  190  A    between atoms: _450  and  _452
REMARK  191  A    between atoms: _452  and  _453
REMARK  192  A    between atoms: _456  and  _458
REMARK  193  A    between atoms: _458  and  _459
REMARK  194  A    between atoms: _458  and  _461
REMARK  195  A    between atoms: _461  and  _462
REMARK  196  A    between atoms: _462  and  _463
REMARK  197  A    between atoms: _463  and  _464
REMARK  198  A    between atoms: _473  and  _475
REMARK  199  A    between atoms: _475  and  _476
REMARK  200  A    between atoms: _475  and  _478
REMARK  201  A    between atoms: _478  and  _479
REMARK  202  A    between atoms: _484  and  _485
REMARK  203  A    between atoms: _487  and  _489
REMARK  204  A    between atoms: _489  and  _490
REMARK  205  A    between atoms: _492  and  _494
REMARK  206  A    between atoms: _494  and  _495
REMARK  207  A    between atoms: _494  and  _497
REMARK  208  A    between atoms: _497  and  _498
REMARK  209  A    between atoms: _501  and  _503
REMARK  210  A    between atoms: _503  and  _504
REMARK  211  A    between atoms: _503  and  _506
REMARK  212  A    between atoms: _506  and  _507
REMARK  213  A    between atoms: _512  and  _513
REMARK  214  A    between atoms: _515  and  _517
REMARK  215  A    between atoms: _517  and  _518
REMARK  216  A    between atoms: _517  and  _520
REMARK  217  A    between atoms: _520  and  _521
REMARK                            x       y       z     vdW  Elec       q    Type
REMARK                         _______ _______ _______ _____ _____    ______ ____
ROOT
ATOM      1  CA  VAL A   1      18.587  12.425  30.904  0.00  0.00    +0.133 C 
ENDROOT
BRANCH   1   2
ATOM      2  CB  VAL A   1      17.567  11.319  30.487  0.00  0.00    +0.023 C 
ATOM      3  CG2 VAL A   1      16.676  10.920  31.670  0.00  0.00    +0.002 C 
ATOM      4  CG1 VAL A   1      16.711  11.816  29.323  0.00  0.00    +0.002 C 
ENDBRANCH   1   2
BRANCH   1   5
ATOM      5  N   VAL A   1      19.392  12.013  32.038  0.00  0.00    -0.239 NA
ATOM      6  H   VAL A   1      18.916  11.724  32.917  0.00  0.00    +0.142 HD
ENDBRANCH   1   5
BRANCH   1   7
ATOM      7  C   VAL A   1      17.873  13.700  31.333  0.00  0.00    +0.224 C 
ATOM      8  O   VAL A   1      17.605  13.897  32.520  0.00  0.00    -0.287 OA
ENDBRANCH   1   7
TORSDOF 3
REMARK  Name = ../refined-set-2016/2boh/2boh_pocket.pdb
REMARK  217 active torsions:
REMARK  status: ('A' for Active; 'I' for Inactive)
REMARK    1  A    between atoms: _1  and  _5
REMARK    2  A    between atoms: _5  and  _6
REMARK    3  A    between atoms: _5  and  _8
REMARK    4  A    between atoms: _8  and  _9
REMARK    5  A    between atoms: _12  and  _14
REMARK    6  A    between atoms: _14  and  _15
REMARK    7  A    between atoms: _14  and  _17
REMARK    8  A    between atoms: _20  and  _22
REMARK    9  A    between atoms: _22  and  _23
REMARK   10  A    between atoms: _22  and  _25
REMARK   11  A    between atoms: _25  and  _26
REMARK   12  A    between atoms: _32  and  _34
REMARK   13  A    between atoms: _34  and  _35
REMARK   14  A    between atoms: _34  and  _37
REMARK   15  A    between atoms: _39  and  _41
REMARK   16  A    between atoms: _41  and  _42
REMARK   17  A    between atoms: _41  and  _44
REMARK   18  A    between atoms: _44  and  _45
REMARK   19  A    between atoms: _50  and  _52
REMARK   20  A    between atoms: _52  and  _53
REMARK   21  A    between atoms: _52  and  _55
REMARK   22  A    between atoms: _55  and  _56
REMARK   23  A    between atoms: _56  and  _57
REMARK   24  A    between atoms: _62  and  _64
REMARK   25  A    between atoms: _64  and  _65
REMARK   26  A    between atoms: _64  and  _67
REMARK   27  A    between atoms: _67  and  _68
REMARK   28  A    between atoms: _74  and  _76
REMARK   29  A    between atoms: _76  and  _77
REMARK   30  A    between atoms: _76  and  _79
REMARK   31  A    between atoms: _79  and  _80
REMARK   32  A    between atoms: _83  and  _85
REMARK   33  A    between atoms: _85  and  _86
REMARK   34  A    between atoms: _85  and  _88
REMARK   35  A    between atoms: _88  and  _89
REMARK   36  A    between atoms: _89  and  _90
REMARK   37  A    between atoms: _90  and  _91
REMARK   38  A    between atoms: _91  and  _92
REMARK   39  A    between atoms: _96  and  _98
REMARK   40  A    between atoms: _98  and  _99
REMARK   41  A    between atoms: _98  and  _101
REMARK   42  A    between atoms: _101  and  _102
REMARK   43  A    between atoms: _102  and  _103
REMARK   44  A    between atoms: _106  and  _108
REMARK   45  A    between atoms: _108  and  _109
REMARK   46  A    between atoms: _108  and  _111
REMARK   47  A    between atoms: _111  and  _112
REMARK   48  A    between atoms: _115  and  _117
REMARK   49  A    between atoms: _117  and  _118
REMARK   50  A    between atoms: _117  and  _120
REMARK   51  A    between atoms: _120  and  _121
REMARK   52  A    between atoms: _126  and  _127
REMARK   53  A    between atoms: _129  and  _131
REMARK   54  A    between atoms: _131  and  _132
REMARK   55  A    between atoms: _131  and  _134
REMARK   56  A    between atoms: _134  and  _135
REMARK   57  A    between atoms: _138  and  _140
REMARK   58  A    between atoms: _140  and  _141
REMARK   59  A    between atoms: _140  and  _143
REMARK   60  A    between atoms: _143  and  _144
REMARK   61  A    between atoms: _147  and  _149
REMARK   62  A    between atoms: _149  and  _150
REMARK   63  A    between atoms: _149  and  _152
REMARK   64  A    between atoms: _155  and  _157
REMARK   65  A    between atoms: _157  and  _158
REMARK   66  A    between atoms: _157  and  _160
REMARK   67  A    between atoms: _160  and  _161
REMARK   68  A    between atoms: _161  and  _162
REMARK   69  A    between atoms: _162  and  _163
REMARK   70  A    between atoms: _172  and  _174
REMARK   71  A    between atoms: _174  and  _175
REMARK   72  A    between atoms: _174  and  _177
REMARK   73  A    between atoms: _177  and  _178
REMARK   74  A    between atoms: _183  and  _185
REMARK   75  A    between atoms: _185  and  _186
REMARK   76  A    between atoms: _185  and  _188
REMARK   77  A    between atoms: _188  and  _189
REMARK   78  A    between atoms: _189  and  _190
REMARK   79  A    between atoms: _193  and  _195
REMARK   80  A    between atoms: _195  and  _196
REMARK   81  A    between atoms: _195  and  _198
REMARK   82  A    between atoms: _198  and  _199
REMARK   83  A    between atoms: _199  and  _200
REMARK   84  A    between atoms: _200  and  _201
REMARK   85  A    between atoms: _201  and  _202
REMARK   86  A    between atoms: _206  and  _208
REMARK   87  A    between atoms: _208  and  _209
REMARK   88  A    between atoms: _211  and  _213
REMARK   89  A    between atoms: _213  and  _214
REMARK   90  A    between atoms: _213  and  _216
REMARK   91  A    between atoms: _219  and  _221
REMARK   92  A    between atoms: _221  and  _222
REMARK   93  A    between atoms: _221  and  _224
REMARK   94  A    between atoms: _224  and  _225
REMARK   95  A    between atoms: _227  and  _229
REMARK   96  A    between atoms: _229  and  _230
REMARK   97  A    between atoms: _229  and  _232
REMARK   98  A    between atoms: _232  and  _233
REMARK   99  A    between atoms: _235  and  _237
REMARK  100  A    between atoms: _237  and  _238
REMARK  101  A    between atoms: _237  and  _240
REMARK  102  A    between atoms: _240  and  _241
REMARK  103  A    between atoms: _247  and  _249
REMARK  104  A    between atoms: _249  and  _250
REMARK  105  A    between atoms: _249  and  _252
REMARK  106  A    between atoms: _252  and  _253
REMARK  107  A    between atoms: _256  and  _258
REMARK  108  A    between atoms: _258  and  _259
REMARK  109  A    between atoms: _258  and  _261
REMARK  110  A    between atoms: _261  and  _262
REMARK  111  A    between atoms: _262  and  _263
REMARK  112  A    between atoms: _265  and  _267
REMARK  113  A    between atoms: _267  and  _268
REMARK  114  A    between atoms: _267  and  _270
REMARK  115  A    between atoms: _270  and  _271
REMARK  116  A    between atoms: _277  and  _279
REMARK  117  A    between atoms: _279  and  _280
REMARK  118  A    between atoms: _279  and  _282
REMARK  119  A    between atoms: _284  and  _286
REMARK  120  A    between atoms: _286  and  _287
REMARK  121  A    between atoms: _290  and  _292
REMARK  122  A    between atoms: _292  and  _293
REMARK  123  A    between atoms: _295  and  _297
REMARK  124  A    between atoms: _297  and  _298
REMARK  125  A    between atoms: _297  and  _300
REMARK  126  A    between atoms: _300  and  _301
REMARK  127  A    between atoms: _301  and  _302
REMARK  128  A    between atoms: _305  and  _307
REMARK  129  A    between atoms: _307  and  _308
REMARK  130  A    between atoms: _307  and  _310
REMARK  131  A    between atoms: _310  and  _311
REMARK  132  A    between atoms: _314  and  _316
REMARK  133  A    between atoms: _316  and  _317
REMARK  134  A    between atoms: _320  and  _322
REMARK  135  A    between atoms: _322  and  _323
REMARK  136  A    between atoms: _322  and  _325
REMARK  137  A    between atoms: _325  and  _326
REMARK  138  A    between atoms: _326  and  _449
REMARK  139  A    between atoms: _327  and  _329
REMARK  140  A    between atoms: _329  and  _330
REMARK  141  A    between atoms: _329  and  _332
REMARK  142  A    between atoms: _332  and  _333
REMARK  143  A    between atoms: _333  and  _334
REMARK  144  A    between atoms: _339  and  _341
REMARK  145  A    between atoms: _341  and  _342
REMARK  146  A    between atoms: _344  and  _346
REMARK  147  A    between atoms: _346  and  _347
REMARK  148  A    between atoms: _346  and  _349
REMARK  149  A    between atoms: _349  and  _350
REMARK  150  A    between atoms: _353  and  _355
REMARK  151  A    between atoms: _355  and  _356
REMARK  152  A    between atoms: _355  and  _358
REMARK  153  A    between atoms: _358  and  _359
REMARK  154  A    between atoms: _361  and  _363
REMARK  155  A    between atoms: _363  and  _364
REMARK  156  A    between atoms: _366  and  _368
REMARK  157  A    between atoms: _368  and  _369
REMARK  158  A    between atoms: _371  and  _373
REMARK  159  A    between atoms: _373  and  _374
REMARK  160  A    between atoms: _373  and  _376
REMARK  161  A    between atoms: _376  and  _377
REMARK  162  A    between atoms: _382  and  _384
REMARK  163  A    between atoms: _384  and  _385
REMARK  164  A    between atoms: _384  and  _387
REMARK  165  A    between atoms: _387  and  _388
REMARK  166  A    between atoms: _391  and  _393
REMARK  167  A    between atoms: _393  and  _394
REMARK  168  A    between atoms: _393  and  _396
REMARK  169  A    between atoms: _399  and  _401
REMARK  170  A    between atoms: _401  and  _402
REMARK  171  A    between atoms: _401  and  _404
REMARK  172  A    between atoms: _404  and  _405
REMARK  173  A    between atoms: _407  and  _409
REMARK  174  A    between atoms: _409  and  _410
REMARK  175  A    between atoms: _409  and  _412
REMARK  176  A    between atoms: _412  and  _413
REMARK  177  A    between atoms: _423  and  _425
REMARK  178  A    between atoms: _425  and  _426
REMARK  179  A    between atoms: _428  and  _430
REMARK  180  A    between atoms: _430  and  _431
REMARK  181  A    between atoms: _430  and  _433
REMARK  182  A    between atoms: _433  and  _434
REMARK  183  A    between atoms: _434  and  _435
REMARK  184  A    between atoms: _438  and  _440
REMARK  185  A    between atoms: _440  and  _441
REMARK  186  A    between atoms: _443  and  _445
REMARK  187  A    between atoms: _445  and  _446
REMARK  188  A    between atoms: _445  and  _448
REMARK  189  A    between atoms: _448  and  _449
REMARK  190  A    between atoms: _450  and  _452
REMARK  191  A    between atoms: _452  and  _453
REMARK  192  A    between atoms: _456  and  _458
REMARK  193  A    between atoms: _458  and  _459
REMARK  194  A    between atoms: _458  and  _461
REMARK  195  A    between atoms: _461  and  _462
REMARK  196  A    between atoms: _462  and  _463
REMARK  197  A    between atoms: _463  and  _464
REMARK  198  A    between atoms: _473  and  _475
REMARK  199  A    between atoms: _475  and  _476
REMARK  200  A    between atoms: _475  and  _478
REMARK  201  A    between atoms: _478  and  _479
REMARK  202  A    between atoms: _484  and  _485
REMARK  203  A    between atoms: _487  and  _489
REMARK  204  A    between atoms: _489  and  _490
REMARK  205  A    between atoms: _492  and  _494
REMARK  206  A    between atoms: _494  and  _495
REMARK  207  A    between atoms: _494  and  _497
REMARK  208  A    between atoms: _497  and  _498
REMARK  209  A    between atoms: _501  and  _503
REMARK  210  A    between atoms: _503  and  _504
REMARK  211  A    between atoms: _503  and  _506
REMARK  212  A    between atoms: _506  and  _507
REMARK  213  A    between atoms: _512  and  _513
REMARK  214  A    between atoms: _515  and  _517
REMARK  215  A    between atoms: _517  and  _518
REMARK  216  A    between atoms: _517  and  _520
REMARK  217  A    between atoms: _520  and  _521
REMARK                            x       y       z     vdW  Elec       q    Type
REMARK                         _______ _______ _______ _____ _____    ______ ____
ROOT
ATOM      1  NE  ARG A   1       2.703  14.307  25.992  0.00  0.00    -0.265 N 
ATOM      2  CZ  ARG A   1       1.612  13.718  25.502  0.00  0.00    +0.342 C 
ATOM      3  NH2 ARG A   1       0.941  12.805  26.226  0.00  0.00    -0.292 N 
ATOM      4 HH21 ARG A   1       1.272  12.552  27.179  0.00  0.00    +0.255 HD
ATOM      5 HH22 ARG A   1       0.091  12.352  25.833  0.00  0.00    +0.255 HD
ATOM      6  NH1 ARG A   1       1.196  14.038  24.265  0.00  0.00    -0.292 N 
ATOM      7 HH11 ARG A   1       0.347  13.587  23.869  0.00  0.00    +0.255 HD
ATOM      8 HH12 ARG A   1       1.723  14.737  23.704  0.00  0.00    +0.255 HD
ATOM      9  HE  ARG A   1       3.193  15.010  25.402  0.00  0.00    +0.259 HD
ENDROOT
BRANCH   1  10
ATOM     10  CD  ARG A   1       3.244  14.014  27.315  0.00  0.00    +0.174 C 
BRANCH  10  11
ATOM     11  CG  ARG A   1       4.358  15.046  27.744  0.00  0.00    +0.045 C 
BRANCH  11  12
ATOM     12  CB  ARG A   1       4.900  14.674  29.150  0.00  0.00    +0.029 C 
BRANCH  12  13
ATOM     13  CA  ARG A   1       5.831  15.726  29.745  0.00  0.00    +0.133 C 
BRANCH  13  14
ATOM     14  N   ARG A   1       6.918  16.002  28.818  0.00  0.00    -0.239 NA
ATOM     15  H   ARG A   1       6.890  15.572  27.871  0.00  0.00    +0.142 HD
ENDBRANCH  13  14
BRANCH  13  16
ATOM     16  C   ARG A   1       6.273  15.271  31.131  0.00  0.00    +0.224 C 
ATOM     17  O   ARG A   1       7.205  14.485  31.265  0.00  0.00    -0.287 OA
ENDBRANCH  13  16
ENDBRANCH  12  13
ENDBRANCH  11  12
ENDBRANCH  10  11
ENDBRANCH   1  10
TORSDOF 6
REMARK  Name = ../refined-set-2016/2boh/2boh_pocket.pdb
REMARK  217 active torsions:
REMARK  status: ('A' for Active; 'I' for Inactive)
REMARK    1  A    between atoms: _1  and  _5
REMARK    2  A    between atoms: _5  and  _6
REMARK    3  A    between atoms: _5  and  _8
REMARK    4  A    between atoms: _8  and  _9
REMARK    5  A    between atoms: _12  and  _14
REMARK    6  A    between atoms: _14  and  _15
REMARK    7  A    between atoms: _14  and  _17
REMARK    8  A    between atoms: _20  and  _22
REMARK    9  A    between atoms: _22  and  _23
REMARK   10  A    between atoms: _22  and  _25
REMARK   11  A    between atoms: _25  and  _26
REMARK   12  A    between atoms: _32  and  _34
REMARK   13  A    between atoms: _34  and  _35
REMARK   14  A    between atoms: _34  and  _37
REMARK   15  A    between atoms: _39  and  _41
REMARK   16  A    between atoms: _41  and  _42
REMARK   17  A    between atoms: _41  and  _44
REMARK   18  A    between atoms: _44  and  _45
REMARK   19  A    between atoms: _50  and  _52
REMARK   20  A    between atoms: _52  and  _53
REMARK   21  A    between atoms: _52  and  _55
REMARK   22  A    between atoms: _55  and  _56
REMARK   23  A    between atoms: _56  and  _57
REMARK   24  A    between atoms: _62  and  _64
REMARK   25  A    between atoms: _64  and  _65
REMARK   26  A    between atoms: _64  and  _67
REMARK   27  A    between atoms: _67  and  _68
REMARK   28  A    between atoms: _74  and  _76
REMARK   29  A    between atoms: _76  and  _77
REMARK   30  A    between atoms: _76  and  _79
REMARK   31  A    between atoms: _79  and  _80
REMARK   32  A    between atoms: _83  and  _85
REMARK   33  A    between atoms: _85  and  _86
REMARK   34  A    between atoms: _85  and  _88
REMARK   35  A    between atoms: _88  and  _89
REMARK   36  A    between atoms: _89  and  _90
REMARK   37  A    between atoms: _90  and  _91
REMARK   38  A    between atoms: _91  and  _92
REMARK   39  A    between atoms: _96  and  _98
REMARK   40  A    between atoms: _98  and  _99
REMARK   41  A    between atoms: _98  and  _101
REMARK   42  A    between atoms: _101  and  _102
REMARK   43  A    between atoms: _102  and  _103
REMARK   44  A    between atoms: _106  and  _108
REMARK   45  A    between atoms: _108  and  _109
REMARK   46  A    between atoms: _108  and  _111
REMARK   47  A    between atoms: _111  and  _112
REMARK   48  A    between atoms: _115  and  _117
REMARK   49  A    between atoms: _117  and  _118
REMARK   50  A    between atoms: _117  and  _120
REMARK   51  A    between atoms: _120  and  _121
REMARK   52  A    between atoms: _126  and  _127
REMARK   53  A    between atoms: _129  and  _131
REMARK   54  A    between atoms: _131  and  _132
REMARK   55  A    between atoms: _131  and  _134
REMARK   56  A    between atoms: _134  and  _135
REMARK   57  A    between atoms: _138  and  _140
REMARK   58  A    between atoms: _140  and  _141
REMARK   59  A    between atoms: _140  and  _143
REMARK   60  A    between atoms: _143  and  _144
REMARK   61  A    between atoms: _147  and  _149
REMARK   62  A    between atoms: _149  and  _150
REMARK   63  A    between atoms: _149  and  _152
REMARK   64  A    between atoms: _155  and  _157
REMARK   65  A    between atoms: _157  and  _158
REMARK   66  A    between atoms: _157  and  _160
REMARK   67  A    between atoms: _160  and  _161
REMARK   68  A    between atoms: _161  and  _162
REMARK   69  A    between atoms: _162  and  _163
REMARK   70  A    between atoms: _172  and  _174
REMARK   71  A    between atoms: _174  and  _175
REMARK   72  A    between atoms: _174  and  _177
REMARK   73  A    between atoms: _177  and  _178
REMARK   74  A    between atoms: _183  and  _185
REMARK   75  A    between atoms: _185  and  _186
REMARK   76  A    between atoms: _185  and  _188
REMARK   77  A    between atoms: _188  and  _189
REMARK   78  A    between atoms: _189  and  _190
REMARK   79  A    between atoms: _193  and  _195
REMARK   80  A    between atoms: _195  and  _196
REMARK   81  A    between atoms: _195  and  _198
REMARK   82  A    between atoms: _198  and  _199
REMARK   83  A    between atoms: _199  and  _200
REMARK   84  A    between atoms: _200  and  _201
REMARK   85  A    between atoms: _201  and  _202
REMARK   86  A    between atoms: _206  and  _208
REMARK   87  A    between atoms: _208  and  _209
REMARK   88  A    between atoms: _211  and  _213
REMARK   89  A    between atoms: _213  and  _214
REMARK   90  A    between atoms: _213  and  _216
REMARK   91  A    between atoms: _219  and  _221
REMARK   92  A    between atoms: _221  and  _222
REMARK   93  A    between atoms: _221  and  _224
REMARK   94  A    between atoms: _224  and  _225
REMARK   95  A    between atoms: _227  and  _229
REMARK   96  A    between atoms: _229  and  _230
REMARK   97  A    between atoms: _229  and  _232
REMARK   98  A    between atoms: _232  and  _233
REMARK   99  A    between atoms: _235  and  _237
REMARK  100  A    between atoms: _237  and  _238
REMARK  101  A    between atoms: _237  and  _240
REMARK  102  A    between atoms: _240  and  _241
REMARK  103  A    between atoms: _247  and  _249
REMARK  104  A    between atoms: _249  and  _250
REMARK  105  A    between atoms: _249  and  _252
REMARK  106  A    between atoms: _252  and  _253
REMARK  107  A    between atoms: _256  and  _258
REMARK  108  A    between atoms: _258  and  _259
REMARK  109  A    between atoms: _258  and  _261
REMARK  110  A    between atoms: _261  and  _262
REMARK  111  A    between atoms: _262  and  _263
REMARK  112  A    between atoms: _265  and  _267
REMARK  113  A    between atoms: _267  and  _268
REMARK  114  A    between atoms: _267  and  _270
REMARK  115  A    between atoms: _270  and  _271
REMARK  116  A    between atoms: _277  and  _279
REMARK  117  A    between atoms: _279  and  _280
REMARK  118  A    between atoms: _279  and  _282
REMARK  119  A    between atoms: _284  and  _286
REMARK  120  A    between atoms: _286  and  _287
REMARK  121  A    between atoms: _290  and  _292
REMARK  122  A    between atoms: _292  and  _293
REMARK  123  A    between atoms: _295  and  _297
REMARK  124  A    between atoms: _297  and  _298
REMARK  125  A    between atoms: _297  and  _300
REMARK  126  A    between atoms: _300  and  _301
REMARK  127  A    between atoms: _301  and  _302
REMARK  128  A    between atoms: _305  and  _307
REMARK  129  A    between atoms: _307  and  _308
REMARK  130  A    between atoms: _307  and  _310
REMARK  131  A    between atoms: _310  and  _311
REMARK  132  A    between atoms: _314  and  _316
REMARK  133  A    between atoms: _316  and  _317
REMARK  134  A    between atoms: _320  and  _322
REMARK  135  A    between atoms: _322  and  _323
REMARK  136  A    between atoms: _322  and  _325
REMARK  137  A    between atoms: _325  and  _326
REMARK  138  A    between atoms: _326  and  _449
REMARK  139  A    between atoms: _327  and  _329
REMARK  140  A    between atoms: _329  and  _330
REMARK  141  A    between atoms: _329  and  _332
REMARK  142  A    between atoms: _332  and  _333
REMARK  143  A    between atoms: _333  and  _334
REMARK  144  A    between atoms: _339  and  _341
REMARK  145  A    between atoms: _341  and  _342
REMARK  146  A    between atoms: _344  and  _346
REMARK  147  A    between atoms: _346  and  _347
REMARK  148  A    between atoms: _346  and  _349
REMARK  149  A    between atoms: _349  and  _350
REMARK  150  A    between atoms: _353  and  _355
REMARK  151  A    between atoms: _355  and  _356
REMARK  152  A    between atoms: _355  and  _358
REMARK  153  A    between atoms: _358  and  _359
REMARK  154  A    between atoms: _361  and  _363
REMARK  155  A    between atoms: _363  and  _364
REMARK  156  A    between atoms: _366  and  _368
REMARK  157  A    between atoms: _368  and  _369
REMARK  158  A    between atoms: _371  and  _373
REMARK  159  A    between atoms: _373  and  _374
REMARK  160  A    between atoms: _373  and  _376
REMARK  161  A    between atoms: _376  and  _377
REMARK  162  A    between atoms: _382  and  _384
REMARK  163  A    between atoms: _384  and  _385
REMARK  164  A    between atoms: _384  and  _387
REMARK  165  A    between atoms: _387  and  _388
REMARK  166  A    between atoms: _391  and  _393
REMARK  167  A    between atoms: _393  and  _394
REMARK  168  A    between atoms: _393  and  _396
REMARK  169  A    between atoms: _399  and  _401
REMARK  170  A    between atoms: _401  and  _402
REMARK  171  A    between atoms: _401  and  _404
REMARK  172  A    between atoms: _404  and  _405
REMARK  173  A    between atoms: _407  and  _409
REMARK  174  A    between atoms: _409  and  _410
REMARK  175  A    between atoms: _409  and  _412
REMARK  176  A    between atoms: _412  and  _413
REMARK  177  A    between atoms: _423  and  _425
REMARK  178  A    between atoms: _425  and  _426
REMARK  179  A    between atoms: _428  and  _430
REMARK  180  A    between atoms: _430  and  _431
REMARK  181  A    between atoms: _430  and  _433
REMARK  182  A    between atoms: _433  and  _434
REMARK  183  A    between atoms: _434  and  _435
REMARK  184  A    between atoms: _438  and  _440
REMARK  185  A    between atoms: _440  and  _441
REMARK  186  A    between atoms: _443  and  _445
REMARK  187  A    between atoms: _445  and  _446
REMARK  188  A    between atoms: _445  and  _448
REMARK  189  A    between atoms: _448  and  _449
REMARK  190  A    between atoms: _450  and  _452
REMARK  191  A    between atoms: _452  and  _453
REMARK  192  A    between atoms: _456  and  _458
REMARK  193  A    between atoms: _458  and  _459
REMARK  194  A    between atoms: _458  and  _461
REMARK  195  A    between atoms: _461  and  _462
REMARK  196  A    between atoms: _462  and  _463
REMARK  197  A    between atoms: _463  and  _464
REMARK  198  A    between atoms: _473  and  _475
REMARK  199  A    between atoms: _475  and  _476
REMARK  200  A    between atoms: _475  and  _478
REMARK  201  A    between atoms: _478  and  _479
REMARK  202  A    between atoms: _484  and  _485
REMARK  203  A    between atoms: _487  and  _489
REMARK  204  A    between atoms: _489  and  _490
REMARK  205  A    between atoms: _492  and  _494
REMARK  206  A    between atoms: _494  and  _495
REMARK  207  A    between atoms: _494  and  _497
REMARK  208  A    between atoms: _497  and  _498
REMARK  209  A    between atoms: _501  and  _503
REMARK  210  A    between atoms: _503  and  _504
REMARK  211  A    between atoms: _503  and  _506
REMARK  212  A    between atoms: _506  and  _507
REMARK  213  A    between atoms: _512  and  _513
REMARK  214  A    between atoms: _515  and  _517
REMARK  215  A    between atoms: _517  and  _518
REMARK  216  A    between atoms: _517  and  _520
REMARK  217  A    between atoms: _520  and  _521
REMARK                            x       y       z     vdW  Elec       q    Type
REMARK                         _______ _______ _______ _____ _____    ______ ____
ROOT
ATOM      1  C   GLU A   2       1.421  10.900  29.766  0.00  0.00    +0.241 C 
ATOM      2  N   LYS A   3       0.325  11.179  30.463  0.00  0.00    -0.297 N 
ATOM      3  H   LYS A   3       0.271  10.906  31.465  0.00  0.00    +0.150 HD
ATOM      4  O   GLU A   2       1.557  11.221  28.585  0.00  0.00    -0.273 OA
ENDROOT
BRANCH   2   5
ATOM      5  CA  LYS A   3      -0.806  11.864  29.842  0.00  0.00    +0.149 C 
BRANCH   5   6
ATOM      6  C   LYS A   3      -0.791  13.372  30.089  0.00  0.00    +0.241 C 
ATOM      7  N   GLY A   4       0.208  13.843  30.829  0.00  0.00    -0.296 N 
ATOM      8  H   GLY A   4       0.929  13.190  31.197  0.00  0.00    +0.150 HD
ATOM      9  O   LYS A   3      -1.671  14.094  29.612  0.00  0.00    -0.273 OA
BRANCH   7  10
ATOM     10  CA  GLY A   4       0.301  15.259  31.127  0.00  0.00    +0.163 C 
BRANCH  10  11
ATOM     11  C   GLY A   4       0.738  16.091  29.937  0.00  0.00    +0.229 C 
ATOM     12  O   GLY A   4       0.834  15.592  28.816  0.00  0.00    -0.286 OA
ENDBRANCH  10  11
ENDBRANCH   7  10
ENDBRANCH   5   6
BRANCH   5  13
ATOM     13  CB  LYS A   3      -2.119  11.271  30.362  0.00  0.00    +0.029 C 
BRANCH  13  14
ATOM     14  CG  LYS A   3      -1.982   9.821  30.888  0.00  0.00    +0.000 C 
BRANCH  14  15
ATOM     15  CD  LYS A   3      -3.345   9.166  31.150  0.00  0.00    -0.024 C 
BRANCH  15  16
ATOM     16  CE  LYS A   3      -3.985   8.718  29.845  0.00  0.00    -0.086 C 
BRANCH  16  17
ATOM     17  NZ  LYS A   3      -3.148   7.701  29.149  0.00  0.00    +0.380 N 
ATOM     18  HZ1 LYS A   3      -3.033   6.869  29.763  0.00  0.00    -0.089 HD
ATOM     19  HZ2 LYS A   3      -2.215   8.108  28.937  0.00  0.00    -0.089 HD
ATOM     20  HZ3 LYS A   3      -3.614   7.418  28.263  0.00  0.00    -0.089 HD
ENDBRANCH  16  17
ENDBRANCH  15  16
ENDBRANCH  14  15
ENDBRANCH  13  14
ENDBRANCH   5  13
ENDBRANCH   2   5
BRANCH   1  21
ATOM     21  CA  GLU A   2       2.536  10.163  30.502  0.00  0.00    +0.149 C 
BRANCH  21  23
ATOM     22  C   HIS A   1       3.026  12.049  31.946  0.00  0.00    +0.239 C 
ATOM     23  N   GLU A   2       2.839  10.741  31.805  0.00  0.00    -0.297 N 
ATOM     24  H   GLU A   2       2.910  10.121  32.637  0.00  0.00    +0.150 HD
ATOM     25  O   HIS A   1       2.950  12.842  31.007  0.00  0.00    -0.274 OA
BRANCH  22  26
ATOM     26  CA  HIS A   1       3.360  12.550  33.342  0.00  0.00    +0.151 C 
BRANCH  26  27
ATOM     27  N   HIS A   1       4.187  13.737  33.127  0.00  0.00    -0.238 NA
ATOM     28  H   HIS A   1       4.024  14.300  32.268  0.00  0.00    +0.142 HD
ENDBRANCH  26  27
BRANCH  26  29
ATOM     29  CB  HIS A   1       2.074  12.899  34.103  0.00  0.00    +0.074 C 
BRANCH  29  30
ATOM     30  CG  HIS A   1       2.307  13.294  35.530  0.00  0.00    +0.082 A 
ATOM     31  ND1 HIS A   1       2.792  12.415  36.476  0.00  0.00    -0.227 NA
ATOM     32  CE1 HIS A   1       2.956  13.051  37.623  0.00  0.00    +0.199 A 
ATOM     33  NE2 HIS A   1       2.590  14.310  37.457  0.00  0.00    -0.221 NA
ATOM     34  CD2 HIS A   1       2.177  14.487  36.158  0.00  0.00    +0.115 A 
ENDBRANCH  29  30
ENDBRANCH  26  29
ENDBRANCH  22  26
ENDBRANCH  21  23
BRANCH  21  35
ATOM     35  CB  GLU A   2       2.163   8.683  30.639  0.00  0.00    +0.041 C 
BRANCH  35  36
ATOM     36  CG  GLU A   2       1.973   7.982  29.282  0.00  0.00    +0.116 C 
BRANCH  36  37
ATOM     37  CD  GLU A   2       1.674   6.497  29.402  0.00  0.00    +0.365 C 
ATOM     38  OE2 GLU A   2       2.487   5.759  30.004  0.00  0.00    -0.246 OA
ATOM     39  OE1 GLU A   2       0.623   6.065  28.881  0.00  0.00    -0.246 OA
ENDBRANCH  36  37
ENDBRANCH  35  36
ENDBRANCH  21  35
ENDBRANCH   1  21
TORSDOF 18
REMARK  Name = ../refined-set-2016/2boh/2boh_pocket.pdb
REMARK  217 active torsions:
REMARK  status: ('A' for Active; 'I' for Inactive)
REMARK    1  A    between atoms: _1  and  _5
REMARK    2  A    between atoms: _5  and  _6
REMARK    3  A    between atoms: _5  and  _8
REMARK    4  A    between atoms: _8  and  _9
REMARK    5  A    between atoms: _12  and  _14
REMARK    6  A    between atoms: _14  and  _15
REMARK    7  A    between atoms: _14  and  _17
REMARK    8  A    between atoms: _20  and  _22
REMARK    9  A    between atoms: _22  and  _23
REMARK   10  A    between atoms: _22  and  _25
REMARK   11  A    between atoms: _25  and  _26
REMARK   12  A    between atoms: _32  and  _34
REMARK   13  A    between atoms: _34  and  _35
REMARK   14  A    between atoms: _34  and  _37
REMARK   15  A    between atoms: _39  and  _41
REMARK   16  A    between atoms: _41  and  _42
REMARK   17  A    between atoms: _41  and  _44
REMARK   18  A    between atoms: _44  and  _45
REMARK   19  A    between atoms: _50  and  _52
REMARK   20  A    between atoms: _52  and  _53
REMARK   21  A    between atoms: _52  and  _55
REMARK   22  A    between atoms: _55  and  _56
REMARK   23  A    between atoms: _56  and  _57
REMARK   24  A    between atoms: _62  and  _64
REMARK   25  A    between atoms: _64  and  _65
REMARK   26  A    between atoms: _64  and  _67
REMARK   27  A    between atoms: _67  and  _68
REMARK   28  A    between atoms: _74  and  _76
REMARK   29  A    between atoms: _76  and  _77
REMARK   30  A    between atoms: _76  and  _79
REMARK   31  A    between atoms: _79  and  _80
REMARK   32  A    between atoms: _83  and  _85
REMARK   33  A    between atoms: _85  and  _86
REMARK   34  A    between atoms: _85  and  _88
REMARK   35  A    between atoms: _88  and  _89
REMARK   36  A    between atoms: _89  and  _90
REMARK   37  A    between atoms: _90  and  _91
REMARK   38  A    between atoms: _91  and  _92
REMARK   39  A    between atoms: _96  and  _98
REMARK   40  A    between atoms: _98  and  _99
REMARK   41  A    between atoms: _98  and  _101
REMARK   42  A    between atoms: _101  and  _102
REMARK   43  A    between atoms: _102  and  _103
REMARK   44  A    between atoms: _106  and  _108
REMARK   45  A    between atoms: _108  and  _109
REMARK   46  A    between atoms: _108  and  _111
REMARK   47  A    between atoms: _111  and  _112
REMARK   48  A    between atoms: _115  and  _117
REMARK   49  A    between atoms: _117  and  _118
REMARK   50  A    between atoms: _117  and  _120
REMARK   51  A    between atoms: _120  and  _121
REMARK   52  A    between atoms: _126  and  _127
REMARK   53  A    between atoms: _129  and  _131
REMARK   54  A    between atoms: _131  and  _132
REMARK   55  A    between atoms: _131  and  _134
REMARK   56  A    between atoms: _134  and  _135
REMARK   57  A    between atoms: _138  and  _140
REMARK   58  A    between atoms: _140  and  _141
REMARK   59  A    between atoms: _140  and  _143
REMARK   60  A    between atoms: _143  and  _144
REMARK   61  A    between atoms: _147  and  _149
REMARK   62  A    between atoms: _149  and  _150
REMARK   63  A    between atoms: _149  and  _152
REMARK   64  A    between atoms: _155  and  _157
REMARK   65  A    between atoms: _157  and  _158
REMARK   66  A    between atoms: _157  and  _160
REMARK   67  A    between atoms: _160  and  _161
REMARK   68  A    between atoms: _161  and  _162
REMARK   69  A    between atoms: _162  and  _163
REMARK   70  A    between atoms: _172  and  _174
REMARK   71  A    between atoms: _174  and  _175
REMARK   72  A    between atoms: _174  and  _177
REMARK   73  A    between atoms: _177  and  _178
REMARK   74  A    between atoms: _183  and  _185
REMARK   75  A    between atoms: _185  and  _186
REMARK   76  A    between atoms: _185  and  _188
REMARK   77  A    between atoms: _188  and  _189
REMARK   78  A    between atoms: _189  and  _190
REMARK   79  A    between atoms: _193  and  _195
REMARK   80  A    between atoms: _195  and  _196
REMARK   81  A    between atoms: _195  and  _198
REMARK   82  A    between atoms: _198  and  _199
REMARK   83  A    between atoms: _199  and  _200
REMARK   84  A    between atoms: _200  and  _201
REMARK   85  A    between atoms: _201  and  _202
REMARK   86  A    between atoms: _206  and  _208
REMARK   87  A    between atoms: _208  and  _209
REMARK   88  A    between atoms: _211  and  _213
REMARK   89  A    between atoms: _213  and  _214
REMARK   90  A    between atoms: _213  and  _216
REMARK   91  A    between atoms: _219  and  _221
REMARK   92  A    between atoms: _221  and  _222
REMARK   93  A    between atoms: _221  and  _224
REMARK   94  A    between atoms: _224  and  _225
REMARK   95  A    between atoms: _227  and  _229
REMARK   96  A    between atoms: _229  and  _230
REMARK   97  A    between atoms: _229  and  _232
REMARK   98  A    between atoms: _232  and  _233
REMARK   99  A    between atoms: _235  and  _237
REMARK  100  A    between atoms: _237  and  _238
REMARK  101  A    between atoms: _237  and  _240
REMARK  102  A    between atoms: _240  and  _241
REMARK  103  A    between atoms: _247  and  _249
REMARK  104  A    between atoms: _249  and  _250
REMARK  105  A    between atoms: _249  and  _252
REMARK  106  A    between atoms: _252  and  _253
REMARK  107  A    between atoms: _256  and  _258
REMARK  108  A    between atoms: _258  and  _259
REMARK  109  A    between atoms: _258  and  _261
REMARK  110  A    between atoms: _261  and  _262
REMARK  111  A    between atoms: _262  and  _263
REMARK  112  A    between atoms: _265  and  _267
REMARK  113  A    between atoms: _267  and  _268
REMARK  114  A    between atoms: _267  and  _270
REMARK  115  A    between atoms: _270  and  _271
REMARK  116  A    between atoms: _277  and  _279
REMARK  117  A    between atoms: _279  and  _280
REMARK  118  A    between atoms: _279  and  _282
REMARK  119  A    between atoms: _284  and  _286
REMARK  120  A    between atoms: _286  and  _287
REMARK  121  A    between atoms: _290  and  _292
REMARK  122  A    between atoms: _292  and  _293
REMARK  123  A    between atoms: _295  and  _297
REMARK  124  A    between atoms: _297  and  _298
REMARK  125  A    between atoms: _297  and  _300
REMARK  126  A    between atoms: _300  and  _301
REMARK  127  A    between atoms: _301  and  _302
REMARK  128  A    between atoms: _305  and  _307
REMARK  129  A    between atoms: _307  and  _308
REMARK  130  A    between atoms: _307  and  _310
REMARK  131  A    between atoms: _310  and  _311
REMARK  132  A    between atoms: _314  and  _316
REMARK  133  A    between atoms: _316  and  _317
REMARK  134  A    between atoms: _320  and  _322
REMARK  135  A    between atoms: _322  and  _323
REMARK  136  A    between atoms: _322  and  _325
REMARK  137  A    between atoms: _325  and  _326
REMARK  138  A    between atoms: _326  and  _449
REMARK  139  A    between atoms: _327  and  _329
REMARK  140  A    between atoms: _329  and  _330
REMARK  141  A    between atoms: _329  and  _332
REMARK  142  A    between atoms: _332  and  _333
REMARK  143  A    between atoms: _333  and  _334
REMARK  144  A    between atoms: _339  and  _341
REMARK  145  A    between atoms: _341  and  _342
REMARK  146  A    between atoms: _344  and  _346
REMARK  147  A    between atoms: _346  and  _347
REMARK  148  A    between atoms: _346  and  _349
REMARK  149  A    between atoms: _349  and  _350
REMARK  150  A    between atoms: _353  and  _355
REMARK  151  A    between atoms: _355  and  _356
REMARK  152  A    between atoms: _355  and  _358
REMARK  153  A    between atoms: _358  and  _359
REMARK  154  A    between atoms: _361  and  _363
REMARK  155  A    between atoms: _363  and  _364
REMARK  156  A    between atoms: _366  and  _368
REMARK  157  A    between atoms: _368  and  _369
REMARK  158  A    between atoms: _371  and  _373
REMARK  159  A    between atoms: _373  and  _374
REMARK  160  A    between atoms: _373  and  _376
REMARK  161  A    between atoms: _376  and  _377
REMARK  162  A    between atoms: _382  and  _384
REMARK  163  A    between atoms: _384  and  _385
REMARK  164  A    between atoms: _384  and  _387
REMARK  165  A    between atoms: _387  and  _388
REMARK  166  A    between atoms: _391  and  _393
REMARK  167  A    between atoms: _393  and  _394
REMARK  168  A    between atoms: _393  and  _396
REMARK  169  A    between atoms: _399  and  _401
REMARK  170  A    between atoms: _401  and  _402
REMARK  171  A    between atoms: _401  and  _404
REMARK  172  A    between atoms: _404  and  _405
REMARK  173  A    between atoms: _407  and  _409
REMARK  174  A    between atoms: _409  and  _410
REMARK  175  A    between atoms: _409  and  _412
REMARK  176  A    between atoms: _412  and  _413
REMARK  177  A    between atoms: _423  and  _425
REMARK  178  A    between atoms: _425  and  _426
REMARK  179  A    between atoms: _428  and  _430
REMARK  180  A    between atoms: _430  and  _431
REMARK  181  A    between atoms: _430  and  _433
REMARK  182  A    between atoms: _433  and  _434
REMARK  183  A    between atoms: _434  and  _435
REMARK  184  A    between atoms: _438  and  _440
REMARK  185  A    between atoms: _440  and  _441
REMARK  186  A    between atoms: _443  and  _445
REMARK  187  A    between atoms: _445  and  _446
REMARK  188  A    between atoms: _445  and  _448
REMARK  189  A    between atoms: _448  and  _449
REMARK  190  A    between atoms: _450  and  _452
REMARK  191  A    between atoms: _452  and  _453
REMARK  192  A    between atoms: _456  and  _458
REMARK  193  A    between atoms: _458  and  _459
REMARK  194  A    between atoms: _458  and  _461
REMARK  195  A    between atoms: _461  and  _462
REMARK  196  A    between atoms: _462  and  _463
REMARK  197  A    between atoms: _463  and  _464
REMARK  198  A    between atoms: _473  and  _475
REMARK  199  A    between atoms: _475  and  _476
REMARK  200  A    between atoms: _475  and  _478
REMARK  201  A    between atoms: _478  and  _479
REMARK  202  A    between atoms: _484  and  _485
REMARK  203  A    between atoms: _487  and  _489
REMARK  204  A    between atoms: _489  and  _490
REMARK  205  A    between atoms: _492  and  _494
REMARK  206  A    between atoms: _494  and  _495
REMARK  207  A    between atoms: _494  and  _497
REMARK  208  A    between atoms: _497  and  _498
REMARK  209  A    between atoms: _501  and  _503
REMARK  210  A    between atoms: _503  and  _504
REMARK  211  A    between atoms: _503  and  _506
REMARK  212  A    between atoms: _506  and  _507
REMARK  213  A    between atoms: _512  and  _513
REMARK  214  A    between atoms: _515  and  _517
REMARK  215  A    between atoms: _517  and  _518
REMARK  216  A    between atoms: _517  and  _520
REMARK  217  A    between atoms: _520  and  _521
REMARK                            x       y       z     vdW  Elec       q    Type
REMARK                         _______ _______ _______ _____ _____    ______ ____
ROOT
ATOM      1  CA  VAL A   1      18.593   6.944  35.217  0.00  0.00    +0.133 C 
ENDROOT
BRANCH   1   2
ATOM      2  CB  VAL A   1      17.940   7.029  33.816  0.00  0.00    +0.023 C 
ATOM      3  CG2 VAL A   1      16.629   7.790  33.904  0.00  0.00    +0.002 C 
ATOM      4  CG1 VAL A   1      18.890   7.707  32.825  0.00  0.00    +0.002 C 
ENDBRANCH   1   2
BRANCH   1   5
ATOM      5  N   VAL A   1      19.161   8.226  35.638  0.00  0.00    -0.239 NA
ATOM      6  H   VAL A   1      19.951   8.637  35.101  0.00  0.00    +0.142 HD
ENDBRANCH   1   5
BRANCH   1   7
ATOM      7  C   VAL A   1      19.612   5.815  35.194  0.00  0.00    +0.224 C 
ATOM      8  O   VAL A   1      20.670   5.921  34.572  0.00  0.00    -0.287 OA
ENDBRANCH   1   7
TORSDOF 3
REMARK  Name = ../refined-set-2016/2boh/2boh_pocket.pdb
REMARK  217 active torsions:
REMARK  status: ('A' for Active; 'I' for Inactive)
REMARK    1  A    between atoms: _1  and  _5
REMARK    2  A    between atoms: _5  and  _6
REMARK    3  A    between atoms: _5  and  _8
REMARK    4  A    between atoms: _8  and  _9
REMARK    5  A    between atoms: _12  and  _14
REMARK    6  A    between atoms: _14  and  _15
REMARK    7  A    between atoms: _14  and  _17
REMARK    8  A    between atoms: _20  and  _22
REMARK    9  A    between atoms: _22  and  _23
REMARK   10  A    between atoms: _22  and  _25
REMARK   11  A    between atoms: _25  and  _26
REMARK   12  A    between atoms: _32  and  _34
REMARK   13  A    between atoms: _34  and  _35
REMARK   14  A    between atoms: _34  and  _37
REMARK   15  A    between atoms: _39  and  _41
REMARK   16  A    between atoms: _41  and  _42
REMARK   17  A    between atoms: _41  and  _44
REMARK   18  A    between atoms: _44  and  _45
REMARK   19  A    between atoms: _50  and  _52
REMARK   20  A    between atoms: _52  and  _53
REMARK   21  A    between atoms: _52  and  _55
REMARK   22  A    between atoms: _55  and  _56
REMARK   23  A    between atoms: _56  and  _57
REMARK   24  A    between atoms: _62  and  _64
REMARK   25  A    between atoms: _64  and  _65
REMARK   26  A    between atoms: _64  and  _67
REMARK   27  A    between atoms: _67  and  _68
REMARK   28  A    between atoms: _74  and  _76
REMARK   29  A    between atoms: _76  and  _77
REMARK   30  A    between atoms: _76  and  _79
REMARK   31  A    between atoms: _79  and  _80
REMARK   32  A    between atoms: _83  and  _85
REMARK   33  A    between atoms: _85  and  _86
REMARK   34  A    between atoms: _85  and  _88
REMARK   35  A    between atoms: _88  and  _89
REMARK   36  A    between atoms: _89  and  _90
REMARK   37  A    between atoms: _90  and  _91
REMARK   38  A    between atoms: _91  and  _92
REMARK   39  A    between atoms: _96  and  _98
REMARK   40  A    between atoms: _98  and  _99
REMARK   41  A    between atoms: _98  and  _101
REMARK   42  A    between atoms: _101  and  _102
REMARK   43  A    between atoms: _102  and  _103
REMARK   44  A    between atoms: _106  and  _108
REMARK   45  A    between atoms: _108  and  _109
REMARK   46  A    between atoms: _108  and  _111
REMARK   47  A    between atoms: _111  and  _112
REMARK   48  A    between atoms: _115  and  _117
REMARK   49  A    between atoms: _117  and  _118
REMARK   50  A    between atoms: _117  and  _120
REMARK   51  A    between atoms: _120  and  _121
REMARK   52  A    between atoms: _126  and  _127
REMARK   53  A    between atoms: _129  and  _131
REMARK   54  A    between atoms: _131  and  _132
REMARK   55  A    between atoms: _131  and  _134
REMARK   56  A    between atoms: _134  and  _135
REMARK   57  A    between atoms: _138  and  _140
REMARK   58  A    between atoms: _140  and  _141
REMARK   59  A    between atoms: _140  and  _143
REMARK   60  A    between atoms: _143  and  _144
REMARK   61  A    between atoms: _147  and  _149
REMARK   62  A    between atoms: _149  and  _150
REMARK   63  A    between atoms: _149  and  _152
REMARK   64  A    between atoms: _155  and  _157
REMARK   65  A    between atoms: _157  and  _158
REMARK   66  A    between atoms: _157  and  _160
REMARK   67  A    between atoms: _160  and  _161
REMARK   68  A    between atoms: _161  and  _162
REMARK   69  A    between atoms: _162  and  _163
REMARK   70  A    between atoms: _172  and  _174
REMARK   71  A    between atoms: _174  and  _175
REMARK   72  A    between atoms: _174  and  _177
REMARK   73  A    between atoms: _177  and  _178
REMARK   74  A    between atoms: _183  and  _185
REMARK   75  A    between atoms: _185  and  _186
REMARK   76  A    between atoms: _185  and  _188
REMARK   77  A    between atoms: _188  and  _189
REMARK   78  A    between atoms: _189  and  _190
REMARK   79  A    between atoms: _193  and  _195
REMARK   80  A    between atoms: _195  and  _196
REMARK   81  A    between atoms: _195  and  _198
REMARK   82  A    between atoms: _198  and  _199
REMARK   83  A    between atoms: _199  and  _200
REMARK   84  A    between atoms: _200  and  _201
REMARK   85  A    between atoms: _201  and  _202
REMARK   86  A    between atoms: _206  and  _208
REMARK   87  A    between atoms: _208  and  _209
REMARK   88  A    between atoms: _211  and  _213
REMARK   89  A    between atoms: _213  and  _214
REMARK   90  A    between atoms: _213  and  _216
REMARK   91  A    between atoms: _219  and  _221
REMARK   92  A    between atoms: _221  and  _222
REMARK   93  A    between atoms: _221  and  _224
REMARK   94  A    between atoms: _224  and  _225
REMARK   95  A    between atoms: _227  and  _229
REMARK   96  A    between atoms: _229  and  _230
REMARK   97  A    between atoms: _229  and  _232
REMARK   98  A    between atoms: _232  and  _233
REMARK   99  A    between atoms: _235  and  _237
REMARK  100  A    between atoms: _237  and  _238
REMARK  101  A    between atoms: _237  and  _240
REMARK  102  A    between atoms: _240  and  _241
REMARK  103  A    between atoms: _247  and  _249
REMARK  104  A    between atoms: _249  and  _250
REMARK  105  A    between atoms: _249  and  _252
REMARK  106  A    between atoms: _252  and  _253
REMARK  107  A    between atoms: _256  and  _258
REMARK  108  A    between atoms: _258  and  _259
REMARK  109  A    between atoms: _258  and  _261
REMARK  110  A    between atoms: _261  and  _262
REMARK  111  A    between atoms: _262  and  _263
REMARK  112  A    between atoms: _265  and  _267
REMARK  113  A    between atoms: _267  and  _268
REMARK  114  A    between atoms: _267  and  _270
REMARK  115  A    between atoms: _270  and  _271
REMARK  116  A    between atoms: _277  and  _279
REMARK  117  A    between atoms: _279  and  _280
REMARK  118  A    between atoms: _279  and  _282
REMARK  119  A    between atoms: _284  and  _286
REMARK  120  A    between atoms: _286  and  _287
REMARK  121  A    between atoms: _290  and  _292
REMARK  122  A    between atoms: _292  and  _293
REMARK  123  A    between atoms: _295  and  _297
REMARK  124  A    between atoms: _297  and  _298
REMARK  125  A    between atoms: _297  and  _300
REMARK  126  A    between atoms: _300  and  _301
REMARK  127  A    between atoms: _301  and  _302
REMARK  128  A    between atoms: _305  and  _307
REMARK  129  A    between atoms: _307  and  _308
REMARK  130  A    between atoms: _307  and  _310
REMARK  131  A    between atoms: _310  and  _311
REMARK  132  A    between atoms: _314  and  _316
REMARK  133  A    between atoms: _316  and  _317
REMARK  134  A    between atoms: _320  and  _322
REMARK  135  A    between atoms: _322  and  _323
REMARK  136  A    between atoms: _322  and  _325
REMARK  137  A    between atoms: _325  and  _326
REMARK  138  A    between atoms: _326  and  _449
REMARK  139  A    between atoms: _327  and  _329
REMARK  140  A    between atoms: _329  and  _330
REMARK  141  A    between atoms: _329  and  _332
REMARK  142  A    between atoms: _332  and  _333
REMARK  143  A    between atoms: _333  and  _334
REMARK  144  A    between atoms: _339  and  _341
REMARK  145  A    between atoms: _341  and  _342
REMARK  146  A    between atoms: _344  and  _346
REMARK  147  A    between atoms: _346  and  _347
REMARK  148  A    between atoms: _346  and  _349
REMARK  149  A    between atoms: _349  and  _350
REMARK  150  A    between atoms: _353  and  _355
REMARK  151  A    between atoms: _355  and  _356
REMARK  152  A    between atoms: _355  and  _358
REMARK  153  A    between atoms: _358  and  _359
REMARK  154  A    between atoms: _361  and  _363
REMARK  155  A    between atoms: _363  and  _364
REMARK  156  A    between atoms: _366  and  _368
REMARK  157  A    between atoms: _368  and  _369
REMARK  158  A    between atoms: _371  and  _373
REMARK  159  A    between atoms: _373  and  _374
REMARK  160  A    between atoms: _373  and  _376
REMARK  161  A    between atoms: _376  and  _377
REMARK  162  A    between atoms: _382  and  _384
REMARK  163  A    between atoms: _384  and  _385
REMARK  164  A    between atoms: _384  and  _387
REMARK  165  A    between atoms: _387  and  _388
REMARK  166  A    between atoms: _391  and  _393
REMARK  167  A    between atoms: _393  and  _394
REMARK  168  A    between atoms: _393  and  _396
REMARK  169  A    between atoms: _399  and  _401
REMARK  170  A    between atoms: _401  and  _402
REMARK  171  A    between atoms: _401  and  _404
REMARK  172  A    between atoms: _404  and  _405
REMARK  173  A    between atoms: _407  and  _409
REMARK  174  A    between atoms: _409  and  _410
REMARK  175  A    between atoms: _409  and  _412
REMARK  176  A    between atoms: _412  and  _413
REMARK  177  A    between atoms: _423  and  _425
REMARK  178  A    between atoms: _425  and  _426
REMARK  179  A    between atoms: _428  and  _430
REMARK  180  A    between atoms: _430  and  _431
REMARK  181  A    between atoms: _430  and  _433
REMARK  182  A    between atoms: _433  and  _434
REMARK  183  A    between atoms: _434  and  _435
REMARK  184  A    between atoms: _438  and  _440
REMARK  185  A    between atoms: _440  and  _441
REMARK  186  A    between atoms: _443  and  _445
REMARK  187  A    between atoms: _445  and  _446
REMARK  188  A    between atoms: _445  and  _448
REMARK  189  A    between atoms: _448  and  _449
REMARK  190  A    between atoms: _450  and  _452
REMARK  191  A    between atoms: _452  and  _453
REMARK  192  A    between atoms: _456  and  _458
REMARK  193  A    between atoms: _458  and  _459
REMARK  194  A    between atoms: _458  and  _461
REMARK  195  A    between atoms: _461  and  _462
REMARK  196  A    between atoms: _462  and  _463
REMARK  197  A    between atoms: _463  and  _464
REMARK  198  A    between atoms: _473  and  _475
REMARK  199  A    between atoms: _475  and  _476
REMARK  200  A    between atoms: _475  and  _478
REMARK  201  A    between atoms: _478  and  _479
REMARK  202  A    between atoms: _484  and  _485
REMARK  203  A    between atoms: _487  and  _489
REMARK  204  A    between atoms: _489  and  _490
REMARK  205  A    between atoms: _492  and  _494
REMARK  206  A    between atoms: _494  and  _495
REMARK  207  A    between atoms: _494  and  _497
REMARK  208  A    between atoms: _497  and  _498
REMARK  209  A    between atoms: _501  and  _503
REMARK  210  A    between atoms: _503  and  _504
REMARK  211  A    between atoms: _503  and  _506
REMARK  212  A    between atoms: _506  and  _507
REMARK  213  A    between atoms: _512  and  _513
REMARK  214  A    between atoms: _515  and  _517
REMARK  215  A    between atoms: _517  and  _518
REMARK  216  A    between atoms: _517  and  _520
REMARK  217  A    between atoms: _520  and  _521
REMARK                            x       y       z     vdW  Elec       q    Type
REMARK                         _______ _______ _______ _____ _____    ______ ____
ROOT
ATOM      1  CA  PHE A   3       9.366  -3.945  20.211  0.00  0.00    +0.153 C 
ENDROOT
BRANCH   1   3
ATOM      2  C   SER A   2       7.691  -5.123  21.537  0.00  0.00    +0.243 C 
ATOM      3  N   PHE A   3       8.771  -4.350  21.478  0.00  0.00    -0.297 N 
ATOM      4  H   PHE A   3       9.205  -4.024  22.365  0.00  0.00    +0.150 HD
ATOM      5  O   SER A   2       7.108  -5.552  20.536  0.00  0.00    -0.273 OA
BRANCH   2   6
ATOM      6  CA  SER A   2       7.198  -5.451  22.942  0.00  0.00    +0.178 C 
BRANCH   6   8
ATOM      7  C   SER A   1       9.268  -5.553  24.247  0.00  0.00    +0.241 C 
ATOM      8  N   SER A   2       8.170  -4.900  23.877  0.00  0.00    -0.295 N 
ATOM      9  H   SER A   2       7.998  -3.954  24.273  0.00  0.00    +0.150 HD
ATOM     10  O   SER A   1       9.562  -6.678  23.848  0.00  0.00    -0.274 OA
BRANCH   7  11
ATOM     11  CA  SER A   1      10.169  -4.791  25.205  0.00  0.00    +0.174 C 
BRANCH  11  12
ATOM     12  N   SER A   1      10.733  -5.511  26.341  0.00  0.00    -0.236 NA
ATOM     13  H   SER A   1      11.637  -6.015  26.243  0.00  0.00    +0.142 HD
ENDBRANCH  11  12
BRANCH  11  14
ATOM     14  CB  SER A   1      11.290  -4.124  24.404  0.00  0.00    +0.163 C 
BRANCH  14  15
ATOM     15  OG  SER A   1      10.750  -3.294  23.392  0.00  0.00    -0.380 OA
ATOM     16  H   SER A   1      10.189  -2.592  23.807  0.00  0.00    +0.211 HD
ENDBRANCH  14  15
ENDBRANCH  11  14
ENDBRANCH   7  11
ENDBRANCH   6   8
BRANCH   6  17
ATOM     17  CB  SER A   2       5.831  -4.803  23.167  0.00  0.00    +0.166 C 
BRANCH  17  18
ATOM     18  OG  SER A   2       5.439  -4.905  24.526  0.00  0.00    -0.380 OA
ATOM     19  H   SER A   2       6.106  -4.447  25.096  0.00  0.00    +0.211 HD
ENDBRANCH  17  18
ENDBRANCH   6  17
ENDBRANCH   2   6
ENDBRANCH   1   3
BRANCH   1  20
ATOM     20  C   PHE A   3      10.825  -4.354  20.195  0.00  0.00    +0.241 C 
ATOM     21  O   PHE A   3      11.473  -4.411  21.238  0.00  0.00    -0.273 OA
ATOM     22  N   ILE A   4      11.342  -4.637  19.007  0.00  0.00    -0.298 N 
ATOM     23  H   ILE A   4      10.742  -4.565  18.160  0.00  0.00    +0.150 HD
BRANCH  22  24
ATOM     24  CA  ILE A   4      12.729  -5.046  18.864  0.00  0.00    +0.137 C 
BRANCH  24  25
ATOM     25  C   ILE A   4      13.708  -3.976  19.353  0.00  0.00    +0.227 C 
ATOM     26  O   ILE A   4      13.555  -2.788  19.063  0.00  0.00    -0.286 OA
ENDBRANCH  24  25
BRANCH  24  27
ATOM     27  CB  ILE A   4      13.045  -5.383  17.389  0.00  0.00    +0.026 C 
ATOM     28  CG2 ILE A   4      12.830  -4.156  16.520  0.00  0.00    +0.002 C 
BRANCH  27  29
ATOM     29  CG1 ILE A   4      14.486  -5.872  17.257  0.00  0.00    +0.002 C 
ATOM     30  CD1 ILE A   4      14.867  -6.257  15.839  0.00  0.00    +0.000 C 
ENDBRANCH  27  29
ENDBRANCH  24  27
ENDBRANCH  22  24
ENDBRANCH   1  20
BRANCH   1  31
ATOM     31  CB  PHE A   3       9.256  -2.431  20.036  0.00  0.00    +0.055 C 
BRANCH  31  32
ATOM     32  CG  PHE A   3       7.843  -1.926  20.022  0.00  0.00    -0.020 A 
ATOM     33  CD2 PHE A   3       7.287  -1.355  21.163  0.00  0.00    -0.004 A 
ATOM     34  CE2 PHE A   3       5.967  -0.904  21.168  0.00  0.00    -0.000 A 
ATOM     35  CZ  PHE A   3       5.188  -1.024  20.020  0.00  0.00    -0.000 A 
ATOM     36  CE1 PHE A   3       5.736  -1.595  18.869  0.00  0.00    -0.000 A 
ATOM     37  CD1 PHE A   3       7.058  -2.043  18.878  0.00  0.00    -0.004 A 
ENDBRANCH  31  32
ENDBRANCH   1  31
TORSDOF 16
REMARK  Name = ../refined-set-2016/2boh/2boh_pocket.pdb
REMARK  217 active torsions:
REMARK  status: ('A' for Active; 'I' for Inactive)
REMARK    1  A    between atoms: _1  and  _5
REMARK    2  A    between atoms: _5  and  _6
REMARK    3  A    between atoms: _5  and  _8
REMARK    4  A    between atoms: _8  and  _9
REMARK    5  A    between atoms: _12  and  _14
REMARK    6  A    between atoms: _14  and  _15
REMARK    7  A    between atoms: _14  and  _17
REMARK    8  A    between atoms: _20  and  _22
REMARK    9  A    between atoms: _22  and  _23
REMARK   10  A    between atoms: _22  and  _25
REMARK   11  A    between atoms: _25  and  _26
REMARK   12  A    between atoms: _32  and  _34
REMARK   13  A    between atoms: _34  and  _35
REMARK   14  A    between atoms: _34  and  _37
REMARK   15  A    between atoms: _39  and  _41
REMARK   16  A    between atoms: _41  and  _42
REMARK   17  A    between atoms: _41  and  _44
REMARK   18  A    between atoms: _44  and  _45
REMARK   19  A    between atoms: _50  and  _52
REMARK   20  A    between atoms: _52  and  _53
REMARK   21  A    between atoms: _52  and  _55
REMARK   22  A    between atoms: _55  and  _56
REMARK   23  A    between atoms: _56  and  _57
REMARK   24  A    between atoms: _62  and  _64
REMARK   25  A    between atoms: _64  and  _65
REMARK   26  A    between atoms: _64  and  _67
REMARK   27  A    between atoms: _67  and  _68
REMARK   28  A    between atoms: _74  and  _76
REMARK   29  A    between atoms: _76  and  _77
REMARK   30  A    between atoms: _76  and  _79
REMARK   31  A    between atoms: _79  and  _80
REMARK   32  A    between atoms: _83  and  _85
REMARK   33  A    between atoms: _85  and  _86
REMARK   34  A    between atoms: _85  and  _88
REMARK   35  A    between atoms: _88  and  _89
REMARK   36  A    between atoms: _89  and  _90
REMARK   37  A    between atoms: _90  and  _91
REMARK   38  A    between atoms: _91  and  _92
REMARK   39  A    between atoms: _96  and  _98
REMARK   40  A    between atoms: _98  and  _99
REMARK   41  A    between atoms: _98  and  _101
REMARK   42  A    between atoms: _101  and  _102
REMARK   43  A    between atoms: _102  and  _103
REMARK   44  A    between atoms: _106  and  _108
REMARK   45  A    between atoms: _108  and  _109
REMARK   46  A    between atoms: _108  and  _111
REMARK   47  A    between atoms: _111  and  _112
REMARK   48  A    between atoms: _115  and  _117
REMARK   49  A    between atoms: _117  and  _118
REMARK   50  A    between atoms: _117  and  _120
REMARK   51  A    between atoms: _120  and  _121
REMARK   52  A    between atoms: _126  and  _127
REMARK   53  A    between atoms: _129  and  _131
REMARK   54  A    between atoms: _131  and  _132
REMARK   55  A    between atoms: _131  and  _134
REMARK   56  A    between atoms: _134  and  _135
REMARK   57  A    between atoms: _138  and  _140
REMARK   58  A    between atoms: _140  and  _141
REMARK   59  A    between atoms: _140  and  _143
REMARK   60  A    between atoms: _143  and  _144
REMARK   61  A    between atoms: _147  and  _149
REMARK   62  A    between atoms: _149  and  _150
REMARK   63  A    between atoms: _149  and  _152
REMARK   64  A    between atoms: _155  and  _157
REMARK   65  A    between atoms: _157  and  _158
REMARK   66  A    between atoms: _157  and  _160
REMARK   67  A    between atoms: _160  and  _161
REMARK   68  A    between atoms: _161  and  _162
REMARK   69  A    between atoms: _162  and  _163
REMARK   70  A    between atoms: _172  and  _174
REMARK   71  A    between atoms: _174  and  _175
REMARK   72  A    between atoms: _174  and  _177
REMARK   73  A    between atoms: _177  and  _178
REMARK   74  A    between atoms: _183  and  _185
REMARK   75  A    between atoms: _185  and  _186
REMARK   76  A    between atoms: _185  and  _188
REMARK   77  A    between atoms: _188  and  _189
REMARK   78  A    between atoms: _189  and  _190
REMARK   79  A    between atoms: _193  and  _195
REMARK   80  A    between atoms: _195  and  _196
REMARK   81  A    between atoms: _195  and  _198
REMARK   82  A    between atoms: _198  and  _199
REMARK   83  A    between atoms: _199  and  _200
REMARK   84  A    between atoms: _200  and  _201
REMARK   85  A    between atoms: _201  and  _202
REMARK   86  A    between atoms: _206  and  _208
REMARK   87  A    between atoms: _208  and  _209
REMARK   88  A    between atoms: _211  and  _213
REMARK   89  A    between atoms: _213  and  _214
REMARK   90  A    between atoms: _213  and  _216
REMARK   91  A    between atoms: _219  and  _221
REMARK   92  A    between atoms: _221  and  _222
REMARK   93  A    between atoms: _221  and  _224
REMARK   94  A    between atoms: _224  and  _225
REMARK   95  A    between atoms: _227  and  _229
REMARK   96  A    between atoms: _229  and  _230
REMARK   97  A    between atoms: _229  and  _232
REMARK   98  A    between atoms: _232  and  _233
REMARK   99  A    between atoms: _235  and  _237
REMARK  100  A    between atoms: _237  and  _238
REMARK  101  A    between atoms: _237  and  _240
REMARK  102  A    between atoms: _240  and  _241
REMARK  103  A    between atoms: _247  and  _249
REMARK  104  A    between atoms: _249  and  _250
REMARK  105  A    between atoms: _249  and  _252
REMARK  106  A    between atoms: _252  and  _253
REMARK  107  A    between atoms: _256  and  _258
REMARK  108  A    between atoms: _258  and  _259
REMARK  109  A    between atoms: _258  and  _261
REMARK  110  A    between atoms: _261  and  _262
REMARK  111  A    between atoms: _262  and  _263
REMARK  112  A    between atoms: _265  and  _267
REMARK  113  A    between atoms: _267  and  _268
REMARK  114  A    between atoms: _267  and  _270
REMARK  115  A    between atoms: _270  and  _271
REMARK  116  A    between atoms: _277  and  _279
REMARK  117  A    between atoms: _279  and  _280
REMARK  118  A    between atoms: _279  and  _282
REMARK  119  A    between atoms: _284  and  _286
REMARK  120  A    between atoms: _286  and  _287
REMARK  121  A    between atoms: _290  and  _292
REMARK  122  A    between atoms: _292  and  _293
REMARK  123  A    between atoms: _295  and  _297
REMARK  124  A    between atoms: _297  and  _298
REMARK  125  A    between atoms: _297  and  _300
REMARK  126  A    between atoms: _300  and  _301
REMARK  127  A    between atoms: _301  and  _302
REMARK  128  A    between atoms: _305  and  _307
REMARK  129  A    between atoms: _307  and  _308
REMARK  130  A    between atoms: _307  and  _310
REMARK  131  A    between atoms: _310  and  _311
REMARK  132  A    between atoms: _314  and  _316
REMARK  133  A    between atoms: _316  and  _317
REMARK  134  A    between atoms: _320  and  _322
REMARK  135  A    between atoms: _322  and  _323
REMARK  136  A    between atoms: _322  and  _325
REMARK  137  A    between atoms: _325  and  _326
REMARK  138  A    between atoms: _326  and  _449
REMARK  139  A    between atoms: _327  and  _329
REMARK  140  A    between atoms: _329  and  _330
REMARK  141  A    between atoms: _329  and  _332
REMARK  142  A    between atoms: _332  and  _333
REMARK  143  A    between atoms: _333  and  _334
REMARK  144  A    between atoms: _339  and  _341
REMARK  145  A    between atoms: _341  and  _342
REMARK  146  A    between atoms: _344  and  _346
REMARK  147  A    between atoms: _346  and  _347
REMARK  148  A    between atoms: _346  and  _349
REMARK  149  A    between atoms: _349  and  _350
REMARK  150  A    between atoms: _353  and  _355
REMARK  151  A    between atoms: _355  and  _356
REMARK  152  A    between atoms: _355  and  _358
REMARK  153  A    between atoms: _358  and  _359
REMARK  154  A    between atoms: _361  and  _363
REMARK  155  A    between atoms: _363  and  _364
REMARK  156  A    between atoms: _366  and  _368
REMARK  157  A    between atoms: _368  and  _369
REMARK  158  A    between atoms: _371  and  _373
REMARK  159  A    between atoms: _373  and  _374
REMARK  160  A    between atoms: _373  and  _376
REMARK  161  A    between atoms: _376  and  _377
REMARK  162  A    between atoms: _382  and  _384
REMARK  163  A    between atoms: _384  and  _385
REMARK  164  A    between atoms: _384  and  _387
REMARK  165  A    between atoms: _387  and  _388
REMARK  166  A    between atoms: _391  and  _393
REMARK  167  A    between atoms: _393  and  _394
REMARK  168  A    between atoms: _393  and  _396
REMARK  169  A    between atoms: _399  and  _401
REMARK  170  A    between atoms: _401  and  _402
REMARK  171  A    between atoms: _401  and  _404
REMARK  172  A    between atoms: _404  and  _405
REMARK  173  A    between atoms: _407  and  _409
REMARK  174  A    between atoms: _409  and  _410
REMARK  175  A    between atoms: _409  and  _412
REMARK  176  A    between atoms: _412  and  _413
REMARK  177  A    between atoms: _423  and  _425
REMARK  178  A    between atoms: _425  and  _426
REMARK  179  A    between atoms: _428  and  _430
REMARK  180  A    between atoms: _430  and  _431
REMARK  181  A    between atoms: _430  and  _433
REMARK  182  A    between atoms: _433  and  _434
REMARK  183  A    between atoms: _434  and  _435
REMARK  184  A    between atoms: _438  and  _440
REMARK  185  A    between atoms: _440  and  _441
REMARK  186  A    between atoms: _443  and  _445
REMARK  187  A    between atoms: _445  and  _446
REMARK  188  A    between atoms: _445  and  _448
REMARK  189  A    between atoms: _448  and  _449
REMARK  190  A    between atoms: _450  and  _452
REMARK  191  A    between atoms: _452  and  _453
REMARK  192  A    between atoms: _456  and  _458
REMARK  193  A    between atoms: _458  and  _459
REMARK  194  A    between atoms: _458  and  _461
REMARK  195  A    between atoms: _461  and  _462
REMARK  196  A    between atoms: _462  and  _463
REMARK  197  A    between atoms: _463  and  _464
REMARK  198  A    between atoms: _473  and  _475
REMARK  199  A    between atoms: _475  and  _476
REMARK  200  A    between atoms: _475  and  _478
REMARK  201  A    between atoms: _478  and  _479
REMARK  202  A    between atoms: _484  and  _485
REMARK  203  A    between atoms: _487  and  _489
REMARK  204  A    between atoms: _489  and  _490
REMARK  205  A    between atoms: _492  and  _494
REMARK  206  A    between atoms: _494  and  _495
REMARK  207  A    between atoms: _494  and  _497
REMARK  208  A    between atoms: _497  and  _498
REMARK  209  A    between atoms: _501  and  _503
REMARK  210  A    between atoms: _503  and  _504
REMARK  211  A    between atoms: _503  and  _506
REMARK  212  A    between atoms: _506  and  _507
REMARK  213  A    between atoms: _512  and  _513
REMARK  214  A    between atoms: _515  and  _517
REMARK  215  A    between atoms: _517  and  _518
REMARK  216  A    between atoms: _517  and  _520
REMARK  217  A    between atoms: _520  and  _521
REMARK                            x       y       z     vdW  Elec       q    Type
REMARK                         _______ _______ _______ _____ _____    ______ ____
ROOT
ATOM      1  C   PHE A   2      18.920   1.202  25.941  0.00  0.00    +0.241 C 
ATOM      2  N   CYS A   3      18.713   0.481  27.040  0.00  0.00    -0.296 N 
ATOM      3  H   CYS A   3      19.301  -0.361  27.202  0.00  0.00    +0.150 HD
ATOM      4  O   PHE A   2      18.264   2.205  25.655  0.00  0.00    -0.273 OA
ENDROOT
BRANCH   2   5
ATOM      5  CA  CYS A   3      17.693   0.825  28.028  0.00  0.00    +0.160 C 
BRANCH   5   6
ATOM      6  C   CYS A   3      18.264   1.538  29.244  0.00  0.00    +0.242 C 
ATOM      7  N   ALA A   4      17.447   2.399  29.835  0.00  0.00    -0.297 N 
ATOM      8  H   ALA A   4      16.502   2.553  29.429  0.00  0.00    +0.150 HD
ATOM      9  O   CYS A   3      19.395   1.291  29.656  0.00  0.00    -0.273 OA
BRANCH   7  10
ATOM     10  CA  ALA A   4      17.825   3.136  31.030  0.00  0.00    +0.149 C 
ATOM     11  CB  ALA A   4      18.600   4.404  30.663  0.00  0.00    +0.031 C 
BRANCH  10  12
ATOM     12  C   ALA A   4      16.536   3.496  31.750  0.00  0.00    +0.241 C 
ATOM     13  N   GLY A   5      16.609   3.599  33.069  0.00  0.00    -0.296 N 
ATOM     14  H   GLY A   5      17.514   3.437  33.554  0.00  0.00    +0.150 HD
ATOM     15  O   ALA A   4      15.493   3.679  31.121  0.00  0.00    -0.273 OA
BRANCH  13  16
ATOM     16  CA  GLY A   5      15.427   3.938  33.834  0.00  0.00    +0.163 C 
BRANCH  16  17
ATOM     17  C   GLY A   5      15.154   2.941  34.941  0.00  0.00    +0.229 C 
ATOM     18  O   GLY A   5      16.046   2.213  35.378  0.00  0.00    -0.286 OA
ENDBRANCH  16  17
ENDBRANCH  13  16
ENDBRANCH  10  12
ENDBRANCH   7  10
ENDBRANCH   5   6
BRANCH   5  19
ATOM     19  CB  CYS A   3      16.990  -0.435  28.545  0.00  0.00    +0.098 C 
ATOM     20  SG  CYS A   3      15.694  -1.257  27.557  0.00  0.00    -0.080 S 
ENDBRANCH   5  19
ENDBRANCH   2   5
BRANCH   1  21
ATOM     21  CA  PHE A   2      20.000   0.694  24.997  0.00  0.00    +0.153 C 
BRANCH  21  23
ATOM     22  C   MET A   1      20.113   0.601  22.571  0.00  0.00    +0.238 C 
ATOM     23  N   PHE A   2      19.726   1.238  23.673  0.00  0.00    -0.297 N 
ATOM     24  H   PHE A   2      19.218   2.142  23.588  0.00  0.00    +0.150 HD
ATOM     25  O   MET A   1      20.773  -0.435  22.592  0.00  0.00    -0.274 OA
BRANCH  22  26
ATOM     26  CA  MET A   1      19.701   1.234  21.251  0.00  0.00    +0.146 C 
BRANCH  26  27
ATOM     27  N   MET A   1      20.508   0.716  20.158  0.00  0.00    -0.238 NA
ATOM     28  H   MET A   1      20.714  -0.302  20.110  0.00  0.00    +0.142 HD
ENDBRANCH  26  27
BRANCH  26  29
ATOM     29  CB  MET A   1      18.219   0.920  21.032  0.00  0.00    +0.038 C 
BRANCH  29  30
ATOM     30  CG  MET A   1      17.744   0.801  19.588  0.00  0.00    +0.060 C 
BRANCH  30  31
ATOM     31  SD  MET A   1      16.007   0.287  19.576  0.00  0.00    -0.139 S 
ATOM     32  CE  MET A   1      15.483   0.760  17.893  0.00  0.00    +0.069 C 
ENDBRANCH  30  31
ENDBRANCH  29  30
ENDBRANCH  26  29
ENDBRANCH  22  26
ENDBRANCH  21  23
BRANCH  21  33
ATOM     33  CB  PHE A   2      21.427   1.053  25.473  0.00  0.00    +0.055 C 
BRANCH  33  34
ATOM     34  CG  PHE A   2      21.620   2.496  25.877  0.00  0.00    -0.020 A 
ATOM     35  CD2 PHE A   2      21.333   2.912  27.175  0.00  0.00    -0.004 A 
ATOM     36  CE2 PHE A   2      21.556   4.233  27.569  0.00  0.00    -0.000 A 
ATOM     37  CZ  PHE A   2      22.073   5.151  26.655  0.00  0.00    -0.000 A 
ATOM     38  CE1 PHE A   2      22.360   4.745  25.353  0.00  0.00    -0.000 A 
ATOM     39  CD1 PHE A   2      22.133   3.424  24.973  0.00  0.00    -0.004 A 
ENDBRANCH  33  34
ENDBRANCH  21  33
ENDBRANCH   1  21
TORSDOF 16
REMARK  Name = ../refined-set-2016/2boh/2boh_pocket.pdb
REMARK  217 active torsions:
REMARK  status: ('A' for Active; 'I' for Inactive)
REMARK    1  A    between atoms: _1  and  _5
REMARK    2  A    between atoms: _5  and  _6
REMARK    3  A    between atoms: _5  and  _8
REMARK    4  A    between atoms: _8  and  _9
REMARK    5  A    between atoms: _12  and  _14
REMARK    6  A    between atoms: _14  and  _15
REMARK    7  A    between atoms: _14  and  _17
REMARK    8  A    between atoms: _20  and  _22
REMARK    9  A    between atoms: _22  and  _23
REMARK   10  A    between atoms: _22  and  _25
REMARK   11  A    between atoms: _25  and  _26
REMARK   12  A    between atoms: _32  and  _34
REMARK   13  A    between atoms: _34  and  _35
REMARK   14  A    between atoms: _34  and  _37
REMARK   15  A    between atoms: _39  and  _41
REMARK   16  A    between atoms: _41  and  _42
REMARK   17  A    between atoms: _41  and  _44
REMARK   18  A    between atoms: _44  and  _45
REMARK   19  A    between atoms: _50  and  _52
REMARK   20  A    between atoms: _52  and  _53
REMARK   21  A    between atoms: _52  and  _55
REMARK   22  A    between atoms: _55  and  _56
REMARK   23  A    between atoms: _56  and  _57
REMARK   24  A    between atoms: _62  and  _64
REMARK   25  A    between atoms: _64  and  _65
REMARK   26  A    between atoms: _64  and  _67
REMARK   27  A    between atoms: _67  and  _68
REMARK   28  A    between atoms: _74  and  _76
REMARK   29  A    between atoms: _76  and  _77
REMARK   30  A    between atoms: _76  and  _79
REMARK   31  A    between atoms: _79  and  _80
REMARK   32  A    between atoms: _83  and  _85
REMARK   33  A    between atoms: _85  and  _86
REMARK   34  A    between atoms: _85  and  _88
REMARK   35  A    between atoms: _88  and  _89
REMARK   36  A    between atoms: _89  and  _90
REMARK   37  A    between atoms: _90  and  _91
REMARK   38  A    between atoms: _91  and  _92
REMARK   39  A    between atoms: _96  and  _98
REMARK   40  A    between atoms: _98  and  _99
REMARK   41  A    between atoms: _98  and  _101
REMARK   42  A    between atoms: _101  and  _102
REMARK   43  A    between atoms: _102  and  _103
REMARK   44  A    between atoms: _106  and  _108
REMARK   45  A    between atoms: _108  and  _109
REMARK   46  A    between atoms: _108  and  _111
REMARK   47  A    between atoms: _111  and  _112
REMARK   48  A    between atoms: _115  and  _117
REMARK   49  A    between atoms: _117  and  _118
REMARK   50  A    between atoms: _117  and  _120
REMARK   51  A    between atoms: _120  and  _121
REMARK   52  A    between atoms: _126  and  _127
REMARK   53  A    between atoms: _129  and  _131
REMARK   54  A    between atoms: _131  and  _132
REMARK   55  A    between atoms: _131  and  _134
REMARK   56  A    between atoms: _134  and  _135
REMARK   57  A    between atoms: _138  and  _140
REMARK   58  A    between atoms: _140  and  _141
REMARK   59  A    between atoms: _140  and  _143
REMARK   60  A    between atoms: _143  and  _144
REMARK   61  A    between atoms: _147  and  _149
REMARK   62  A    between atoms: _149  and  _150
REMARK   63  A    between atoms: _149  and  _152
REMARK   64  A    between atoms: _155  and  _157
REMARK   65  A    between atoms: _157  and  _158
REMARK   66  A    between atoms: _157  and  _160
REMARK   67  A    between atoms: _160  and  _161
REMARK   68  A    between atoms: _161  and  _162
REMARK   69  A    between atoms: _162  and  _163
REMARK   70  A    between atoms: _172  and  _174
REMARK   71  A    between atoms: _174  and  _175
REMARK   72  A    between atoms: _174  and  _177
REMARK   73  A    between atoms: _177  and  _178
REMARK   74  A    between atoms: _183  and  _185
REMARK   75  A    between atoms: _185  and  _186
REMARK   76  A    between atoms: _185  and  _188
REMARK   77  A    between atoms: _188  and  _189
REMARK   78  A    between atoms: _189  and  _190
REMARK   79  A    between atoms: _193  and  _195
REMARK   80  A    between atoms: _195  and  _196
REMARK   81  A    between atoms: _195  and  _198
REMARK   82  A    between atoms: _198  and  _199
REMARK   83  A    between atoms: _199  and  _200
REMARK   84  A    between atoms: _200  and  _201
REMARK   85  A    between atoms: _201  and  _202
REMARK   86  A    between atoms: _206  and  _208
REMARK   87  A    between atoms: _208  and  _209
REMARK   88  A    between atoms: _211  and  _213
REMARK   89  A    between atoms: _213  and  _214
REMARK   90  A    between atoms: _213  and  _216
REMARK   91  A    between atoms: _219  and  _221
REMARK   92  A    between atoms: _221  and  _222
REMARK   93  A    between atoms: _221  and  _224
REMARK   94  A    between atoms: _224  and  _225
REMARK   95  A    between atoms: _227  and  _229
REMARK   96  A    between atoms: _229  and  _230
REMARK   97  A    between atoms: _229  and  _232
REMARK   98  A    between atoms: _232  and  _233
REMARK   99  A    between atoms: _235  and  _237
REMARK  100  A    between atoms: _237  and  _238
REMARK  101  A    between atoms: _237  and  _240
REMARK  102  A    between atoms: _240  and  _241
REMARK  103  A    between atoms: _247  and  _249
REMARK  104  A    between atoms: _249  and  _250
REMARK  105  A    between atoms: _249  and  _252
REMARK  106  A    between atoms: _252  and  _253
REMARK  107  A    between atoms: _256  and  _258
REMARK  108  A    between atoms: _258  and  _259
REMARK  109  A    between atoms: _258  and  _261
REMARK  110  A    between atoms: _261  and  _262
REMARK  111  A    between atoms: _262  and  _263
REMARK  112  A    between atoms: _265  and  _267
REMARK  113  A    between atoms: _267  and  _268
REMARK  114  A    between atoms: _267  and  _270
REMARK  115  A    between atoms: _270  and  _271
REMARK  116  A    between atoms: _277  and  _279
REMARK  117  A    between atoms: _279  and  _280
REMARK  118  A    between atoms: _279  and  _282
REMARK  119  A    between atoms: _284  and  _286
REMARK  120  A    between atoms: _286  and  _287
REMARK  121  A    between atoms: _290  and  _292
REMARK  122  A    between atoms: _292  and  _293
REMARK  123  A    between atoms: _295  and  _297
REMARK  124  A    between atoms: _297  and  _298
REMARK  125  A    between atoms: _297  and  _300
REMARK  126  A    between atoms: _300  and  _301
REMARK  127  A    between atoms: _301  and  _302
REMARK  128  A    between atoms: _305  and  _307
REMARK  129  A    between atoms: _307  and  _308
REMARK  130  A    between atoms: _307  and  _310
REMARK  131  A    between atoms: _310  and  _311
REMARK  132  A    between atoms: _314  and  _316
REMARK  133  A    between atoms: _316  and  _317
REMARK  134  A    between atoms: _320  and  _322
REMARK  135  A    between atoms: _322  and  _323
REMARK  136  A    between atoms: _322  and  _325
REMARK  137  A    between atoms: _325  and  _326
REMARK  138  A    between atoms: _326  and  _449
REMARK  139  A    between atoms: _327  and  _329
REMARK  140  A    between atoms: _329  and  _330
REMARK  141  A    between atoms: _329  and  _332
REMARK  142  A    between atoms: _332  and  _333
REMARK  143  A    between atoms: _333  and  _334
REMARK  144  A    between atoms: _339  and  _341
REMARK  145  A    between atoms: _341  and  _342
REMARK  146  A    between atoms: _344  and  _346
REMARK  147  A    between atoms: _346  and  _347
REMARK  148  A    between atoms: _346  and  _349
REMARK  149  A    between atoms: _349  and  _350
REMARK  150  A    between atoms: _353  and  _355
REMARK  151  A    between atoms: _355  and  _356
REMARK  152  A    between atoms: _355  and  _358
REMARK  153  A    between atoms: _358  and  _359
REMARK  154  A    between atoms: _361  and  _363
REMARK  155  A    between atoms: _363  and  _364
REMARK  156  A    between atoms: _366  and  _368
REMARK  157  A    between atoms: _368  and  _369
REMARK  158  A    between atoms: _371  and  _373
REMARK  159  A    between atoms: _373  and  _374
REMARK  160  A    between atoms: _373  and  _376
REMARK  161  A    between atoms: _376  and  _377
REMARK  162  A    between atoms: _382  and  _384
REMARK  163  A    between atoms: _384  and  _385
REMARK  164  A    between atoms: _384  and  _387
REMARK  165  A    between atoms: _387  and  _388
REMARK  166  A    between atoms: _391  and  _393
REMARK  167  A    between atoms: _393  and  _394
REMARK  168  A    between atoms: _393  and  _396
REMARK  169  A    between atoms: _399  and  _401
REMARK  170  A    between atoms: _401  and  _402
REMARK  171  A    between atoms: _401  and  _404
REMARK  172  A    between atoms: _404  and  _405
REMARK  173  A    between atoms: _407  and  _409
REMARK  174  A    between atoms: _409  and  _410
REMARK  175  A    between atoms: _409  and  _412
REMARK  176  A    between atoms: _412  and  _413
REMARK  177  A    between atoms: _423  and  _425
REMARK  178  A    between atoms: _425  and  _426
REMARK  179  A    between atoms: _428  and  _430
REMARK  180  A    between atoms: _430  and  _431
REMARK  181  A    between atoms: _430  and  _433
REMARK  182  A    between atoms: _433  and  _434
REMARK  183  A    between atoms: _434  and  _435
REMARK  184  A    between atoms: _438  and  _440
REMARK  185  A    between atoms: _440  and  _441
REMARK  186  A    between atoms: _443  and  _445
REMARK  187  A    between atoms: _445  and  _446
REMARK  188  A    between atoms: _445  and  _448
REMARK  189  A    between atoms: _448  and  _449
REMARK  190  A    between atoms: _450  and  _452
REMARK  191  A    between atoms: _452  and  _453
REMARK  192  A    between atoms: _456  and  _458
REMARK  193  A    between atoms: _458  and  _459
REMARK  194  A    between atoms: _458  and  _461
REMARK  195  A    between atoms: _461  and  _462
REMARK  196  A    between atoms: _462  and  _463
REMARK  197  A    between atoms: _463  and  _464
REMARK  198  A    between atoms: _473  and  _475
REMARK  199  A    between atoms: _475  and  _476
REMARK  200  A    between atoms: _475  and  _478
REMARK  201  A    between atoms: _478  and  _479
REMARK  202  A    between atoms: _484  and  _485
REMARK  203  A    between atoms: _487  and  _489
REMARK  204  A    between atoms: _489  and  _490
REMARK  205  A    between atoms: _492  and  _494
REMARK  206  A    between atoms: _494  and  _495
REMARK  207  A    between atoms: _494  and  _497
REMARK  208  A    between atoms: _497  and  _498
REMARK  209  A    between atoms: _501  and  _503
REMARK  210  A    between atoms: _503  and  _504
REMARK  211  A    between atoms: _503  and  _506
REMARK  212  A    between atoms: _506  and  _507
REMARK  213  A    between atoms: _512  and  _513
REMARK  214  A    between atoms: _515  and  _517
REMARK  215  A    between atoms: _517  and  _518
REMARK  216  A    between atoms: _517  and  _520
REMARK  217  A    between atoms: _520  and  _521
REMARK                            x       y       z     vdW  Elec       q    Type
REMARK                         _______ _______ _______ _____ _____    ______ ____
ROOT
ATOM      1  CA  SER A   8       6.272   6.851  30.219  0.00  0.00    +0.160 C 
ENDROOT
BRANCH   1   2
ATOM      2  C   SER A   8       6.224   6.359  31.661  0.00  0.00    +0.242 C 
ATOM      3  O   SER A   8       5.193   6.459  32.320  0.00  0.00    -0.273 OA
ATOM      4  N   GLY A   9       7.343   5.826  32.138  0.00  0.00    -0.297 N 
ATOM      5  H   GLY A   9       8.168   5.748  31.510  0.00  0.00    +0.150 HD
BRANCH   4   6
ATOM      6  CA  GLY A   9       7.458   5.344  33.514  0.00  0.00    +0.149 C 
ATOM      7  CB  GLY A   9       7.134   6.479  34.488  0.00  0.00    +0.031 C 
BRANCH   6   8
ATOM      8  C   GLY A   9       6.601   4.125  33.839  0.00  0.00    +0.241 C 
ATOM      9  O   GLY A   9       6.388   3.809  35.010  0.00  0.00    -0.273 OA
ATOM     10  N   GLY A  10       6.118   3.438  32.808  0.00  0.00    -0.298 N 
ATOM     11  H   GLY A  10       6.328   3.755  31.840  0.00  0.00    +0.150 HD
BRANCH  10  12
ATOM     12  CA  GLY A  10       5.299   2.249  33.010  0.00  0.00    +0.137 C 
BRANCH  12  13
ATOM     13  C   GLY A  10       6.092   1.143  33.693  0.00  0.00    +0.227 C 
ATOM     14  O   GLY A  10       7.276   0.941  33.407  0.00  0.00    -0.286 OA
ENDBRANCH  12  13
BRANCH  12  15
ATOM     15  CB  GLY A  10       4.763   1.735  31.673  0.00  0.00    +0.031 C 
BRANCH  15  16
ATOM     16  CG  GLY A  10       3.750   2.650  31.036  0.00  0.00    +0.045 C 
BRANCH  16  17
ATOM     17  CD  GLY A  10       3.170   2.052  29.764  0.00  0.00    +0.174 C 
BRANCH  17  18
ATOM     18  NE  GLY A  10       2.185   2.946  29.166  0.00  0.00    -0.265 N 
ATOM     19  HE  GLY A  10       1.993   3.847  29.649  0.00  0.00    +0.259 HD
ATOM     20  CZ  GLY A  10       1.516   2.690  28.048  0.00  0.00    +0.342 C 
ATOM     21  NH2 GLY A  10       0.637   3.571  27.587  0.00  0.00    -0.292 N 
ATOM     22 HH21 GLY A  10       0.473   4.460  28.101  0.00  0.00    +0.255 HD
ATOM     23 HH22 GLY A  10       0.112   3.372  26.712  0.00  0.00    +0.255 HD
ATOM     24  NH1 GLY A  10       1.722   1.556  27.390  0.00  0.00    -0.292 N 
ATOM     25 HH11 GLY A  10       2.410   0.864  27.750  0.00  0.00    +0.255 HD
ATOM     26 HH12 GLY A  10       1.196   1.360  26.515  0.00  0.00    +0.255 HD
ENDBRANCH  17  18
ENDBRANCH  16  17
ENDBRANCH  15  16
ENDBRANCH  12  15
ENDBRANCH  10  12
ENDBRANCH   6   8
ENDBRANCH   4   6
ENDBRANCH   1   2
BRANCH   1  27
ATOM     27  N   SER A   8       5.255   6.208  29.400  0.00  0.00    -0.296 N 
ATOM     28  H   SER A   8       4.276   6.155  29.748  0.00  0.00    +0.150 HD
ATOM     29  C   ASP A   7       5.557   5.689  28.217  0.00  0.00    +0.243 C 
ATOM     30  O   ASP A   7       6.699   5.716  27.753  0.00  0.00    -0.273 OA
BRANCH  29  31
ATOM     31  CA  ASP A   7       4.425   5.036  27.440  0.00  0.00    +0.176 C 
BRANCH  31  32
ATOM     32  N   ASP A   7       5.044   4.194  26.439  0.00  0.00    -0.295 N 
ATOM     33  C   GLY A   6       5.468   2.977  26.752  0.00  0.00    +0.241 C 
ATOM     34  O   GLY A   6       5.332   2.481  27.873  0.00  0.00    -0.273 OA
ATOM     35  H   ASP A   7       5.157   4.546  25.467  0.00  0.00    +0.150 HD
BRANCH  33  36
ATOM     36  CA  GLY A   6       6.159   2.217  25.631  0.00  0.00    +0.149 C 
BRANCH  36  37
ATOM     37  N   GLY A   6       7.558   2.642  25.687  0.00  0.00    -0.297 N 
ATOM     38  H   GLY A   6       8.247   2.066  26.212  0.00  0.00    +0.150 HD
ATOM     39  C   GLN A   5       7.963   3.754  25.077  0.00  0.00    +0.243 C 
ATOM     40  O   GLN A   5       7.213   4.455  24.398  0.00  0.00    -0.273 OA
BRANCH  39  41
ATOM     41  CA  GLN A   5       9.422   4.131  25.221  0.00  0.00    +0.176 C 
BRANCH  41  42
ATOM     42  N   GLN A   5       9.805   4.960  24.098  0.00  0.00    -0.295 N 
ATOM     43  C   TRP A   4      11.055   5.373  23.930  0.00  0.00    +0.241 C 
ATOM     44  O   TRP A   4      11.967   5.101  24.704  0.00  0.00    -0.273 OA
ATOM     45  H   GLN A   5       9.082   5.239  23.405  0.00  0.00    +0.150 HD
BRANCH  43  46
ATOM     46  CA  TRP A   4      11.293   6.215  22.686  0.00  0.00    +0.153 C 
BRANCH  46  47
ATOM     47  N   TRP A   4      12.686   6.584  22.488  0.00  0.00    -0.297 N 
ATOM     48  H   TRP A   4      13.433   6.046  22.972  0.00  0.00    +0.150 HD
ATOM     49  C   SER A   3      13.017   7.599  21.697  0.00  0.00    +0.243 C 
ATOM     50  O   SER A   3      12.182   8.279  21.100  0.00  0.00    -0.273 OA
BRANCH  49  51
ATOM     51  CA  SER A   3      14.505   7.893  21.543  0.00  0.00    +0.178 C 
BRANCH  51  52
ATOM     52  N   SER A   3      15.152   8.413  22.739  0.00  0.00    -0.295 N 
ATOM     53  H   SER A   3      15.285   7.793  23.564  0.00  0.00    +0.150 HD
ATOM     54  C   VAL A   2      15.574   9.671  22.787  0.00  0.00    +0.241 C 
ATOM     55  O   VAL A   2      15.412  10.457  21.856  0.00  0.00    -0.273 OA
BRANCH  54  56
ATOM     56  CA  VAL A   2      16.289  10.107  24.070  0.00  0.00    +0.148 C 
BRANCH  56  57
ATOM     57  N   VAL A   2      17.617  10.564  23.671  0.00  0.00    -0.297 N 
ATOM     58  H   VAL A   2      17.903  11.545  23.863  0.00  0.00    +0.150 HD
ATOM     59  C   ILE A   1      18.464   9.737  23.064  0.00  0.00    +0.238 C 
ATOM     60  O   ILE A   1      18.202   8.553  22.846  0.00  0.00    -0.274 OA
BRANCH  59  61
ATOM     61  CA  ILE A   1      19.820  10.304  22.651  0.00  0.00    +0.145 C 
BRANCH  61  62
ATOM     62  N   ILE A   1      20.800   9.368  23.158  0.00  0.00    -0.238 NA
ATOM     63  H   ILE A   1      20.698   8.359  22.929  0.00  0.00    +0.142 HD
ENDBRANCH  61  62
BRANCH  61  64
ATOM     64  CB  ILE A   1      19.861  10.391  21.118  0.00  0.00    +0.025 C 
ATOM     65  CG2 ILE A   1      18.827  11.414  20.633  0.00  0.00    +0.002 C 
BRANCH  64  66
ATOM     66  CG1 ILE A   1      21.263  10.775  20.651  0.00  0.00    +0.002 C 
ATOM     67  CD1 ILE A   1      21.472  10.602  19.150  0.00  0.00    +0.000 C 
ENDBRANCH  64  66
ENDBRANCH  61  64
ENDBRANCH  59  61
ENDBRANCH  56  57
BRANCH  56  68
ATOM     68  CB  VAL A   2      15.486  11.231  24.769  0.00  0.00    +0.027 C 
ATOM     69  CG2 VAL A   2      16.280  11.788  25.952  0.00  0.00    +0.002 C 
ATOM     70  CG1 VAL A   2      14.152  10.686  25.260  0.00  0.00    +0.002 C 
ENDBRANCH  56  68
ENDBRANCH  54  56
ENDBRANCH  51  52
BRANCH  51  71
ATOM     71  CB  SER A   3      15.235   6.628  21.076  0.00  0.00    +0.166 C 
BRANCH  71  72
ATOM     72  OG  SER A   3      14.845   6.269  19.760  0.00  0.00    -0.380 OA
ATOM     73  H   SER A   3      15.330   5.451  19.485  0.00  0.00    +0.211 HD
ENDBRANCH  71  72
ENDBRANCH  51  71
ENDBRANCH  49  51
ENDBRANCH  46  47
BRANCH  46  74
ATOM     74  CB  TRP A   4      10.778   5.443  21.462  0.00  0.00    +0.057 C 
BRANCH  74  75
ATOM     75  CG  TRP A   4      11.554   4.185  21.166  0.00  0.00    -0.002 A 
ATOM     76  CD2 TRP A   4      11.222   2.851  21.578  0.00  0.00    +0.013 A 
ATOM     77  CE3 TRP A   4      10.175   2.296  22.331  0.00  0.00    +0.001 A 
ATOM     78  CZ3 TRP A   4      10.158   0.916  22.544  0.00  0.00    +0.000 A 
ATOM     79  CH2 TRP A   4      11.171   0.091  22.024  0.00  0.00    +0.001 A 
ATOM     80  CZ2 TRP A   4      12.209   0.608  21.285  0.00  0.00    +0.017 A 
ATOM     81  CE2 TRP A   4      12.225   1.994  21.073  0.00  0.00    +0.056 A 
ATOM     82  NE1 TRP A   4      13.120   2.772  20.384  0.00  0.00    -0.352 N 
ATOM     83  HE1 TRP A   4      13.969   2.426  19.893  0.00  0.00    +0.166 HD
ATOM     84  CD1 TRP A   4      12.712   4.085  20.448  0.00  0.00    +0.068 A 
ENDBRANCH  74  75
ENDBRANCH  46  74
ENDBRANCH  43  46
ENDBRANCH  41  42
ENDBRANCH  39  41
ENDBRANCH  36  37
BRANCH  36  85
ATOM     85  CB  GLY A   6       6.048   0.707  25.846  0.00  0.00    +0.041 C 
BRANCH  85  86
ATOM     86  CG  GLY A   6       6.638  -0.121  24.687  0.00  0.00    +0.116 C 
BRANCH  86  87
ATOM     87  CD  GLY A   6       6.538  -1.619  24.922  0.00  0.00    +0.365 C 
ATOM     88  OE2 GLY A   6       5.432  -2.093  25.261  0.00  0.00    -0.246 OA
ATOM     89  OE1 GLY A   6       7.561  -2.321  24.762  0.00  0.00    -0.246 OA
ENDBRANCH  86  87
ENDBRANCH  85  86
ENDBRANCH  36  85
ENDBRANCH  33  36
ENDBRANCH  31  32
ENDBRANCH  29  31
ENDBRANCH   1  27
BRANCH   1  90
ATOM     90  CB  SER A   8       6.081   8.370  30.195  0.00  0.00    +0.098 C 
BRANCH  90  91
ATOM     91  SG  SER A   8       6.160   9.101  28.530  0.00  0.00    -0.080 S 
BRANCH  91  92
ATOM     92  SG  TRP A   4       5.974  11.088  28.866  0.00  0.00    -0.080 S 
BRANCH  92  93
ATOM     93  CB  TRP A   4       7.688  11.640  29.146  0.00  0.00    +0.098 C 
BRANCH  93  94
ATOM     94  CA  TRP A   4       8.722  11.180  28.107  0.00  0.00    +0.160 C 
BRANCH  94  95
ATOM     95  C   TRP A   4       8.625  12.048  26.850  0.00  0.00    +0.242 C 
ATOM     96  O   TRP A   4       9.582  12.730  26.473  0.00  0.00    -0.273 OA
ATOM     97  N   GLN A   5       7.456  12.009  26.215  0.00  0.00    -0.297 N 
ATOM     98  H   GLN A   5       6.706  11.401  26.602  0.00  0.00    +0.150 HD
BRANCH  97  99
ATOM     99  CA  GLN A   5       7.168  12.777  25.000  0.00  0.00    +0.149 C 
BRANCH  99 100
ATOM    100  C   GLN A   5       7.627  14.225  25.157  0.00  0.00    +0.241 C 
ATOM    101  O   GLN A   5       7.230  14.890  26.107  0.00  0.00    -0.273 OA
ATOM    102  N   GLY A   6       8.454  14.716  24.237  0.00  0.00    -0.295 N 
ATOM    103  H   GLY A   6       8.746  14.128  23.430  0.00  0.00    +0.150 HD
BRANCH 102 104
ATOM    104  CA  GLY A   6       8.948  16.079  24.364  0.00  0.00    +0.176 C 
BRANCH 104 105
ATOM    105  C   GLY A   6      10.435  16.067  24.677  0.00  0.00    +0.243 C 
ATOM    106  N   ASP A   7      10.876  15.026  25.378  0.00  0.00    -0.296 N 
ATOM    107  H   ASP A   7      10.197  14.300  25.684  0.00  0.00    +0.150 HD
ATOM    108  O   GLY A   6      11.175  16.969  24.285  0.00  0.00    -0.273 OA
BRANCH 106 109
ATOM    109  CA  ASP A   7      12.280  14.872  25.730  0.00  0.00    +0.160 C 
BRANCH 109 110
ATOM    110  C   ASP A   7      13.058  14.198  24.602  0.00  0.00    +0.241 C 
ATOM    111  O   ASP A   7      14.292  14.223  24.587  0.00  0.00    -0.273 OA
ATOM    112  N   SER A   8      12.335  13.592  23.661  0.00  0.00    -0.295 N 
ATOM    113  H   SER A   8      11.297  13.606  23.729  0.00  0.00    +0.150 HD
BRANCH 112 114
ATOM    114  CA  SER A   8      12.969  12.906  22.533  0.00  0.00    +0.178 C 
BRANCH 114 115
ATOM    115  C   SER A   8      13.998  13.774  21.819  0.00  0.00    +0.243 C 
ATOM    116  O   SER A   8      13.764  14.960  21.584  0.00  0.00    -0.273 OA
ATOM    117  N   GLY A   9      15.129  13.162  21.469  0.00  0.00    -0.295 N 
ATOM    118  H   GLY A   9      15.248  12.152  21.687  0.00  0.00    +0.150 HD
BRANCH 117 119
ATOM    119  CA  GLY A   9      16.196  13.871  20.792  0.00  0.00    +0.176 C 
BRANCH 119 120
ATOM    120  C   GLY A   9      17.095  14.556  21.803  0.00  0.00    +0.243 C 
ATOM    121  N   GLY A  10      16.665  14.533  23.062  0.00  0.00    -0.296 N 
ATOM    122  H   GLY A  10      15.771  14.051  23.285  0.00  0.00    +0.150 HD
ATOM    123  O   GLY A   9      18.157  15.081  21.457  0.00  0.00    -0.273 OA
BRANCH 121 124
ATOM    124  CA  GLY A  10      17.415  15.165  24.129  0.00  0.00    +0.163 C 
BRANCH 124 125
ATOM    125  C   GLY A  10      18.660  14.422  24.573  0.00  0.00    +0.229 C 
ATOM    126  O   GLY A  10      18.938  13.310  24.099  0.00  0.00    -0.286 OA
ENDBRANCH 124 125
ENDBRANCH 121 124
ENDBRANCH 119 120
ENDBRANCH 117 119
ENDBRANCH 114 115
BRANCH 114 127
ATOM    127  CB  SER A   8      11.912  12.453  21.525  0.00  0.00    +0.166 C 
BRANCH 127 128
ATOM    128  OG  SER A   8      11.032  11.512  22.114  0.00  0.00    -0.380 OA
ATOM    129  H   SER A   8      10.356  11.231  21.447  0.00  0.00    +0.211 HD
ENDBRANCH 127 128
ENDBRANCH 114 127
ENDBRANCH 112 114
ENDBRANCH 109 110
BRANCH 109 130
ATOM    130  CB  ASP A   7      12.429  14.039  27.008  0.00  0.00    +0.143 C 
BRANCH 130 131
ATOM    131  CG  ASP A   7      11.842  14.728  28.228  0.00  0.00    +0.367 C 
ATOM    132  OD2 ASP A   7      11.195  14.038  29.049  0.00  0.00    -0.246 OA
ATOM    133  OD1 ASP A   7      12.040  15.955  28.368  0.00  0.00    -0.246 OA
ENDBRANCH 130 131
ENDBRANCH 109 130
ENDBRANCH 106 109
ENDBRANCH 104 105
ENDBRANCH 102 104
ENDBRANCH  99 100
BRANCH  99 134
ATOM    134  CB  GLN A   5       5.666  12.724  24.726  0.00  0.00    +0.039 C 
BRANCH 134 135
ATOM    135  CG  GLN A   5       5.322  12.944  23.267  0.00  0.00    +0.087 C 
BRANCH 135 136
ATOM    136  CD  GLN A   5       4.205  12.042  22.767  0.00  0.00    +0.219 C 
ATOM    137  NE2 GLN A   5       4.172  10.802  23.203  0.00  0.00    -0.329 N 
ATOM    138 HE21 GLN A   5       4.903  10.462  23.860  0.00  0.00    +0.145 HD
ATOM    139 HE22 GLN A   5       3.415  10.161  22.891  0.00  0.00    +0.145 HD
ATOM    140  OE1 GLN A   5       3.366  12.493  21.990  0.00  0.00    -0.275 OA
ENDBRANCH 135 136
ENDBRANCH 134 135
ENDBRANCH  99 134
ENDBRANCH  97  99
ENDBRANCH  94  95
BRANCH  94 143
ATOM    141  C   SER A   3      10.460  10.329  29.580  0.00  0.00    +0.241 C 
ATOM    142  O   SER A   3       9.755   9.390  29.939  0.00  0.00    -0.273 OA
ATOM    143  N   TRP A   4      10.055  11.238  28.698  0.00  0.00    -0.296 N 
ATOM    144  H   TRP A   4      10.701  12.006  28.424  0.00  0.00    +0.150 HD
BRANCH 141 145
ATOM    145  CA  SER A   3      11.865  10.478  30.151  0.00  0.00    +0.149 C 
ATOM    146  CB  SER A   3      12.911  10.337  29.048  0.00  0.00    +0.031 C 
BRANCH 145 149
ATOM    147  C   VAL A   2      11.461   9.472  32.317  0.00  0.00    +0.241 C 
ATOM    148  O   VAL A   2      10.983  10.520  32.754  0.00  0.00    -0.273 OA
ATOM    149  N   SER A   3      11.954   9.367  31.089  0.00  0.00    -0.297 N 
ATOM    150  H   SER A   3      12.410   8.480  30.793  0.00  0.00    +0.150 HD
BRANCH 147 151
ATOM    151  CA  VAL A   2      11.548   8.230  33.200  0.00  0.00    +0.160 C 
BRANCH 151 154
ATOM    152  C   ILE A   1      11.170   7.709  35.547  0.00  0.00    +0.238 C 
ATOM    153  O   ILE A   1      11.516   6.540  35.392  0.00  0.00    -0.274 OA
ATOM    154  N   VAL A   2      11.166   8.600  34.562  0.00  0.00    -0.297 N 
ATOM    155  H   VAL A   2      10.885   9.581  34.764  0.00  0.00    +0.150 HD
BRANCH 152 156
ATOM    156  CA  ILE A   1      10.716   8.198  36.910  0.00  0.00    +0.145 C 
BRANCH 156 157
ATOM    157  N   ILE A   1       9.778   7.196  37.398  0.00  0.00    -0.238 NA
ATOM    158  H   ILE A   1       9.970   6.192  37.204  0.00  0.00    +0.142 HD
ENDBRANCH 156 157
BRANCH 156 159
ATOM    159  CB  ILE A   1      11.917   8.343  37.843  0.00  0.00    +0.038 C 
BRANCH 159 160
ATOM    160  CG  ILE A   1      11.578   8.923  39.215  0.00  0.00    +0.116 C 
BRANCH 160 161
ATOM    161  CD  ILE A   1      12.809   9.418  39.948  0.00  0.00    +0.365 C 
ATOM    162  OE2 ILE A   1      12.820  10.598  40.354  0.00  0.00    -0.246 OA
ATOM    163  OE1 ILE A   1      13.765   8.630  40.119  0.00  0.00    -0.246 OA
ENDBRANCH 160 161
ENDBRANCH 159 160
ENDBRANCH 156 159
ENDBRANCH 152 156
ENDBRANCH 151 154
BRANCH 151 164
ATOM    164  CB  VAL A   2      10.576   7.144  32.708  0.00  0.00    +0.143 C 
BRANCH 164 165
ATOM    165  CG  VAL A   2      10.924   6.595  31.336  0.00  0.00    +0.367 C 
ATOM    166  OD2 VAL A   2      12.114   6.579  30.958  0.00  0.00    -0.246 OA
ATOM    167  OD1 VAL A   2       9.990   6.148  30.639  0.00  0.00    -0.246 OA
ENDBRANCH 164 165
ENDBRANCH 151 164
ENDBRANCH 147 151
ENDBRANCH 145 149
ENDBRANCH 141 145
ENDBRANCH  94 143
ENDBRANCH  93  94
ENDBRANCH  92  93
ENDBRANCH  91  92
ENDBRANCH  90  91
ENDBRANCH   1  90
TORSDOF 71
REMARK  Name = ../refined-set-2016/2boh/2boh_pocket.pdb
REMARK  217 active torsions:
REMARK  status: ('A' for Active; 'I' for Inactive)
REMARK    1  A    between atoms: _1  and  _5
REMARK    2  A    between atoms: _5  and  _6
REMARK    3  A    between atoms: _5  and  _8
REMARK    4  A    between atoms: _8  and  _9
REMARK    5  A    between atoms: _12  and  _14
REMARK    6  A    between atoms: _14  and  _15
REMARK    7  A    between atoms: _14  and  _17
REMARK    8  A    between atoms: _20  and  _22
REMARK    9  A    between atoms: _22  and  _23
REMARK   10  A    between atoms: _22  and  _25
REMARK   11  A    between atoms: _25  and  _26
REMARK   12  A    between atoms: _32  and  _34
REMARK   13  A    between atoms: _34  and  _35
REMARK   14  A    between atoms: _34  and  _37
REMARK   15  A    between atoms: _39  and  _41
REMARK   16  A    between atoms: _41  and  _42
REMARK   17  A    between atoms: _41  and  _44
REMARK   18  A    between atoms: _44  and  _45
REMARK   19  A    between atoms: _50  and  _52
REMARK   20  A    between atoms: _52  and  _53
REMARK   21  A    between atoms: _52  and  _55
REMARK   22  A    between atoms: _55  and  _56
REMARK   23  A    between atoms: _56  and  _57
REMARK   24  A    between atoms: _62  and  _64
REMARK   25  A    between atoms: _64  and  _65
REMARK   26  A    between atoms: _64  and  _67
REMARK   27  A    between atoms: _67  and  _68
REMARK   28  A    between atoms: _74  and  _76
REMARK   29  A    between atoms: _76  and  _77
REMARK   30  A    between atoms: _76  and  _79
REMARK   31  A    between atoms: _79  and  _80
REMARK   32  A    between atoms: _83  and  _85
REMARK   33  A    between atoms: _85  and  _86
REMARK   34  A    between atoms: _85  and  _88
REMARK   35  A    between atoms: _88  and  _89
REMARK   36  A    between atoms: _89  and  _90
REMARK   37  A    between atoms: _90  and  _91
REMARK   38  A    between atoms: _91  and  _92
REMARK   39  A    between atoms: _96  and  _98
REMARK   40  A    between atoms: _98  and  _99
REMARK   41  A    between atoms: _98  and  _101
REMARK   42  A    between atoms: _101  and  _102
REMARK   43  A    between atoms: _102  and  _103
REMARK   44  A    between atoms: _106  and  _108
REMARK   45  A    between atoms: _108  and  _109
REMARK   46  A    between atoms: _108  and  _111
REMARK   47  A    between atoms: _111  and  _112
REMARK   48  A    between atoms: _115  and  _117
REMARK   49  A    between atoms: _117  and  _118
REMARK   50  A    between atoms: _117  and  _120
REMARK   51  A    between atoms: _120  and  _121
REMARK   52  A    between atoms: _126  and  _127
REMARK   53  A    between atoms: _129  and  _131
REMARK   54  A    between atoms: _131  and  _132
REMARK   55  A    between atoms: _131  and  _134
REMARK   56  A    between atoms: _134  and  _135
REMARK   57  A    between atoms: _138  and  _140
REMARK   58  A    between atoms: _140  and  _141
REMARK   59  A    between atoms: _140  and  _143
REMARK   60  A    between atoms: _143  and  _144
REMARK   61  A    between atoms: _147  and  _149
REMARK   62  A    between atoms: _149  and  _150
REMARK   63  A    between atoms: _149  and  _152
REMARK   64  A    between atoms: _155  and  _157
REMARK   65  A    between atoms: _157  and  _158
REMARK   66  A    between atoms: _157  and  _160
REMARK   67  A    between atoms: _160  and  _161
REMARK   68  A    between atoms: _161  and  _162
REMARK   69  A    between atoms: _162  and  _163
REMARK   70  A    between atoms: _172  and  _174
REMARK   71  A    between atoms: _174  and  _175
REMARK   72  A    between atoms: _174  and  _177
REMARK   73  A    between atoms: _177  and  _178
REMARK   74  A    between atoms: _183  and  _185
REMARK   75  A    between atoms: _185  and  _186
REMARK   76  A    between atoms: _185  and  _188
REMARK   77  A    between atoms: _188  and  _189
REMARK   78  A    between atoms: _189  and  _190
REMARK   79  A    between atoms: _193  and  _195
REMARK   80  A    between atoms: _195  and  _196
REMARK   81  A    between atoms: _195  and  _198
REMARK   82  A    between atoms: _198  and  _199
REMARK   83  A    between atoms: _199  and  _200
REMARK   84  A    between atoms: _200  and  _201
REMARK   85  A    between atoms: _201  and  _202
REMARK   86  A    between atoms: _206  and  _208
REMARK   87  A    between atoms: _208  and  _209
REMARK   88  A    between atoms: _211  and  _213
REMARK   89  A    between atoms: _213  and  _214
REMARK   90  A    between atoms: _213  and  _216
REMARK   91  A    between atoms: _219  and  _221
REMARK   92  A    between atoms: _221  and  _222
REMARK   93  A    between atoms: _221  and  _224
REMARK   94  A    between atoms: _224  and  _225
REMARK   95  A    between atoms: _227  and  _229
REMARK   96  A    between atoms: _229  and  _230
REMARK   97  A    between atoms: _229  and  _232
REMARK   98  A    between atoms: _232  and  _233
REMARK   99  A    between atoms: _235  and  _237
REMARK  100  A    between atoms: _237  and  _238
REMARK  101  A    between atoms: _237  and  _240
REMARK  102  A    between atoms: _240  and  _241
REMARK  103  A    between atoms: _247  and  _249
REMARK  104  A    between atoms: _249  and  _250
REMARK  105  A    between atoms: _249  and  _252
REMARK  106  A    between atoms: _252  and  _253
REMARK  107  A    between atoms: _256  and  _258
REMARK  108  A    between atoms: _258  and  _259
REMARK  109  A    between atoms: _258  and  _261
REMARK  110  A    between atoms: _261  and  _262
REMARK  111  A    between atoms: _262  and  _263
REMARK  112  A    between atoms: _265  and  _267
REMARK  113  A    between atoms: _267  and  _268
REMARK  114  A    between atoms: _267  and  _270
REMARK  115  A    between atoms: _270  and  _271
REMARK  116  A    between atoms: _277  and  _279
REMARK  117  A    between atoms: _279  and  _280
REMARK  118  A    between atoms: _279  and  _282
REMARK  119  A    between atoms: _284  and  _286
REMARK  120  A    between atoms: _286  and  _287
REMARK  121  A    between atoms: _290  and  _292
REMARK  122  A    between atoms: _292  and  _293
REMARK  123  A    between atoms: _295  and  _297
REMARK  124  A    between atoms: _297  and  _298
REMARK  125  A    between atoms: _297  and  _300
REMARK  126  A    between atoms: _300  and  _301
REMARK  127  A    between atoms: _301  and  _302
REMARK  128  A    between atoms: _305  and  _307
REMARK  129  A    between atoms: _307  and  _308
REMARK  130  A    between atoms: _307  and  _310
REMARK  131  A    between atoms: _310  and  _311
REMARK  132  A    between atoms: _314  and  _316
REMARK  133  A    between atoms: _316  and  _317
REMARK  134  A    between atoms: _320  and  _322
REMARK  135  A    between atoms: _322  and  _323
REMARK  136  A    between atoms: _322  and  _325
REMARK  137  A    between atoms: _325  and  _326
REMARK  138  A    between atoms: _326  and  _449
REMARK  139  A    between atoms: _327  and  _329
REMARK  140  A    between atoms: _329  and  _330
REMARK  141  A    between atoms: _329  and  _332
REMARK  142  A    between atoms: _332  and  _333
REMARK  143  A    between atoms: _333  and  _334
REMARK  144  A    between atoms: _339  and  _341
REMARK  145  A    between atoms: _341  and  _342
REMARK  146  A    between atoms: _344  and  _346
REMARK  147  A    between atoms: _346  and  _347
REMARK  148  A    between atoms: _346  and  _349
REMARK  149  A    between atoms: _349  and  _350
REMARK  150  A    between atoms: _353  and  _355
REMARK  151  A    between atoms: _355  and  _356
REMARK  152  A    between atoms: _355  and  _358
REMARK  153  A    between atoms: _358  and  _359
REMARK  154  A    between atoms: _361  and  _363
REMARK  155  A    between atoms: _363  and  _364
REMARK  156  A    between atoms: _366  and  _368
REMARK  157  A    between atoms: _368  and  _369
REMARK  158  A    between atoms: _371  and  _373
REMARK  159  A    between atoms: _373  and  _374
REMARK  160  A    between atoms: _373  and  _376
REMARK  161  A    between atoms: _376  and  _377
REMARK  162  A    between atoms: _382  and  _384
REMARK  163  A    between atoms: _384  and  _385
REMARK  164  A    between atoms: _384  and  _387
REMARK  165  A    between atoms: _387  and  _388
REMARK  166  A    between atoms: _391  and  _393
REMARK  167  A    between atoms: _393  and  _394
REMARK  168  A    between atoms: _393  and  _396
REMARK  169  A    between atoms: _399  and  _401
REMARK  170  A    between atoms: _401  and  _402
REMARK  171  A    between atoms: _401  and  _404
REMARK  172  A    between atoms: _404  and  _405
REMARK  173  A    between atoms: _407  and  _409
REMARK  174  A    between atoms: _409  and  _410
REMARK  175  A    between atoms: _409  and  _412
REMARK  176  A    between atoms: _412  and  _413
REMARK  177  A    between atoms: _423  and  _425
REMARK  178  A    between atoms: _425  and  _426
REMARK  179  A    between atoms: _428  and  _430
REMARK  180  A    between atoms: _430  and  _431
REMARK  181  A    between atoms: _430  and  _433
REMARK  182  A    between atoms: _433  and  _434
REMARK  183  A    between atoms: _434  and  _435
REMARK  184  A    between atoms: _438  and  _440
REMARK  185  A    between atoms: _440  and  _441
REMARK  186  A    between atoms: _443  and  _445
REMARK  187  A    between atoms: _445  and  _446
REMARK  188  A    between atoms: _445  and  _448
REMARK  189  A    between atoms: _448  and  _449
REMARK  190  A    between atoms: _450  and  _452
REMARK  191  A    between atoms: _452  and  _453
REMARK  192  A    between atoms: _456  and  _458
REMARK  193  A    between atoms: _458  and  _459
REMARK  194  A    between atoms: _458  and  _461
REMARK  195  A    between atoms: _461  and  _462
REMARK  196  A    between atoms: _462  and  _463
REMARK  197  A    between atoms: _463  and  _464
REMARK  198  A    between atoms: _473  and  _475
REMARK  199  A    between atoms: _475  and  _476
REMARK  200  A    between atoms: _475  and  _478
REMARK  201  A    between atoms: _478  and  _479
REMARK  202  A    between atoms: _484  and  _485
REMARK  203  A    between atoms: _487  and  _489
REMARK  204  A    between atoms: _489  and  _490
REMARK  205  A    between atoms: _492  and  _494
REMARK  206  A    between atoms: _494  and  _495
REMARK  207  A    between atoms: _494  and  _497
REMARK  208  A    between atoms: _497  and  _498
REMARK  209  A    between atoms: _501  and  _503
REMARK  210  A    between atoms: _503  and  _504
REMARK  211  A    between atoms: _503  and  _506
REMARK  212  A    between atoms: _506  and  _507
REMARK  213  A    between atoms: _512  and  _513
REMARK  214  A    between atoms: _515  and  _517
REMARK  215  A    between atoms: _517  and  _518
REMARK  216  A    between atoms: _517  and  _520
REMARK  217  A    between atoms: _520  and  _521
REMARK                            x       y       z     vdW  Elec       q    Type
REMARK                         _______ _______ _______ _____ _____    ______ ____
ROOT
ATOM      1  CB  HIS A   1      21.232   9.874  27.395  0.00  0.00    +0.072 C 
ENDROOT
BRANCH   1   2
ATOM      2  CG  HIS A   1      21.575   8.786  28.369  0.00  0.00    +0.082 A 
ATOM      3  CD2 HIS A   1      20.792   8.037  29.185  0.00  0.00    +0.115 A 
ATOM      4  NE2 HIS A   1      21.628   7.265  29.956  0.00  0.00    -0.221 NA
ATOM      5  CE1 HIS A   1      22.882   7.524  29.623  0.00  0.00    +0.199 A 
ATOM      6  ND1 HIS A   1      22.878   8.436  28.664  0.00  0.00    -0.227 NA
ENDBRANCH   1   2
BRANCH   1   7
ATOM      7  CA  HIS A   1      21.573  11.270  27.912  0.00  0.00    +0.139 C 
BRANCH   7   8
ATOM      8  N   HIS A   1      21.409  12.323  26.929  0.00  0.00    -0.239 NA
ATOM      9  H   HIS A   1      21.996  12.299  26.071  0.00  0.00    +0.142 HD
ENDBRANCH   7   8
BRANCH   7  10
ATOM     10  C   HIS A   1      23.076  11.402  28.079  0.00  0.00    +0.224 C 
ATOM     11  O   HIS A   1      23.836  11.127  27.150  0.00  0.00    -0.287 OA
ENDBRANCH   7  10
ENDBRANCH   1   7
TORSDOF 4
REMARK  Name = ../refined-set-2016/2boh/2boh_pocket.pdb
REMARK  217 active torsions:
REMARK  status: ('A' for Active; 'I' for Inactive)
REMARK    1  A    between atoms: _1  and  _5
REMARK    2  A    between atoms: _5  and  _6
REMARK    3  A    between atoms: _5  and  _8
REMARK    4  A    between atoms: _8  and  _9
REMARK    5  A    between atoms: _12  and  _14
REMARK    6  A    between atoms: _14  and  _15
REMARK    7  A    between atoms: _14  and  _17
REMARK    8  A    between atoms: _20  and  _22
REMARK    9  A    between atoms: _22  and  _23
REMARK   10  A    between atoms: _22  and  _25
REMARK   11  A    between atoms: _25  and  _26
REMARK   12  A    between atoms: _32  and  _34
REMARK   13  A    between atoms: _34  and  _35
REMARK   14  A    between atoms: _34  and  _37
REMARK   15  A    between atoms: _39  and  _41
REMARK   16  A    between atoms: _41  and  _42
REMARK   17  A    between atoms: _41  and  _44
REMARK   18  A    between atoms: _44  and  _45
REMARK   19  A    between atoms: _50  and  _52
REMARK   20  A    between atoms: _52  and  _53
REMARK   21  A    between atoms: _52  and  _55
REMARK   22  A    between atoms: _55  and  _56
REMARK   23  A    between atoms: _56  and  _57
REMARK   24  A    between atoms: _62  and  _64
REMARK   25  A    between atoms: _64  and  _65
REMARK   26  A    between atoms: _64  and  _67
REMARK   27  A    between atoms: _67  and  _68
REMARK   28  A    between atoms: _74  and  _76
REMARK   29  A    between atoms: _76  and  _77
REMARK   30  A    between atoms: _76  and  _79
REMARK   31  A    between atoms: _79  and  _80
REMARK   32  A    between atoms: _83  and  _85
REMARK   33  A    between atoms: _85  and  _86
REMARK   34  A    between atoms: _85  and  _88
REMARK   35  A    between atoms: _88  and  _89
REMARK   36  A    between atoms: _89  and  _90
REMARK   37  A    between atoms: _90  and  _91
REMARK   38  A    between atoms: _91  and  _92
REMARK   39  A    between atoms: _96  and  _98
REMARK   40  A    between atoms: _98  and  _99
REMARK   41  A    between atoms: _98  and  _101
REMARK   42  A    between atoms: _101  and  _102
REMARK   43  A    between atoms: _102  and  _103
REMARK   44  A    between atoms: _106  and  _108
REMARK   45  A    between atoms: _108  and  _109
REMARK   46  A    between atoms: _108  and  _111
REMARK   47  A    between atoms: _111  and  _112
REMARK   48  A    between atoms: _115  and  _117
REMARK   49  A    between atoms: _117  and  _118
REMARK   50  A    between atoms: _117  and  _120
REMARK   51  A    between atoms: _120  and  _121
REMARK   52  A    between atoms: _126  and  _127
REMARK   53  A    between atoms: _129  and  _131
REMARK   54  A    between atoms: _131  and  _132
REMARK   55  A    between atoms: _131  and  _134
REMARK   56  A    between atoms: _134  and  _135
REMARK   57  A    between atoms: _138  and  _140
REMARK   58  A    between atoms: _140  and  _141
REMARK   59  A    between atoms: _140  and  _143
REMARK   60  A    between atoms: _143  and  _144
REMARK   61  A    between atoms: _147  and  _149
REMARK   62  A    between atoms: _149  and  _150
REMARK   63  A    between atoms: _149  and  _152
REMARK   64  A    between atoms: _155  and  _157
REMARK   65  A    between atoms: _157  and  _158
REMARK   66  A    between atoms: _157  and  _160
REMARK   67  A    between atoms: _160  and  _161
REMARK   68  A    between atoms: _161  and  _162
REMARK   69  A    between atoms: _162  and  _163
REMARK   70  A    between atoms: _172  and  _174
REMARK   71  A    between atoms: _174  and  _175
REMARK   72  A    between atoms: _174  and  _177
REMARK   73  A    between atoms: _177  and  _178
REMARK   74  A    between atoms: _183  and  _185
REMARK   75  A    between atoms: _185  and  _186
REMARK   76  A    between atoms: _185  and  _188
REMARK   77  A    between atoms: _188  and  _189
REMARK   78  A    between atoms: _189  and  _190
REMARK   79  A    between atoms: _193  and  _195
REMARK   80  A    between atoms: _195  and  _196
REMARK   81  A    between atoms: _195  and  _198
REMARK   82  A    between atoms: _198  and  _199
REMARK   83  A    between atoms: _199  and  _200
REMARK   84  A    between atoms: _200  and  _201
REMARK   85  A    between atoms: _201  and  _202
REMARK   86  A    between atoms: _206  and  _208
REMARK   87  A    between atoms: _208  and  _209
REMARK   88  A    between atoms: _211  and  _213
REMARK   89  A    between atoms: _213  and  _214
REMARK   90  A    between atoms: _213  and  _216
REMARK   91  A    between atoms: _219  and  _221
REMARK   92  A    between atoms: _221  and  _222
REMARK   93  A    between atoms: _221  and  _224
REMARK   94  A    between atoms: _224  and  _225
REMARK   95  A    between atoms: _227  and  _229
REMARK   96  A    between atoms: _229  and  _230
REMARK   97  A    between atoms: _229  and  _232
REMARK   98  A    between atoms: _232  and  _233
REMARK   99  A    between atoms: _235  and  _237
REMARK  100  A    between atoms: _237  and  _238
REMARK  101  A    between atoms: _237  and  _240
REMARK  102  A    between atoms: _240  and  _241
REMARK  103  A    between atoms: _247  and  _249
REMARK  104  A    between atoms: _249  and  _250
REMARK  105  A    between atoms: _249  and  _252
REMARK  106  A    between atoms: _252  and  _253
REMARK  107  A    between atoms: _256  and  _258
REMARK  108  A    between atoms: _258  and  _259
REMARK  109  A    between atoms: _258  and  _261
REMARK  110  A    between atoms: _261  and  _262
REMARK  111  A    between atoms: _262  and  _263
REMARK  112  A    between atoms: _265  and  _267
REMARK  113  A    between atoms: _267  and  _268
REMARK  114  A    between atoms: _267  and  _270
REMARK  115  A    between atoms: _270  and  _271
REMARK  116  A    between atoms: _277  and  _279
REMARK  117  A    between atoms: _279  and  _280
REMARK  118  A    between atoms: _279  and  _282
REMARK  119  A    between atoms: _284  and  _286
REMARK  120  A    between atoms: _286  and  _287
REMARK  121  A    between atoms: _290  and  _292
REMARK  122  A    between atoms: _292  and  _293
REMARK  123  A    between atoms: _295  and  _297
REMARK  124  A    between atoms: _297  and  _298
REMARK  125  A    between atoms: _297  and  _300
REMARK  126  A    between atoms: _300  and  _301
REMARK  127  A    between atoms: _301  and  _302
REMARK  128  A    between atoms: _305  and  _307
REMARK  129  A    between atoms: _307  and  _308
REMARK  130  A    between atoms: _307  and  _310
REMARK  131  A    between atoms: _310  and  _311
REMARK  132  A    between atoms: _314  and  _316
REMARK  133  A    between atoms: _316  and  _317
REMARK  134  A    between atoms: _320  and  _322
REMARK  135  A    between atoms: _322  and  _323
REMARK  136  A    between atoms: _322  and  _325
REMARK  137  A    between atoms: _325  and  _326
REMARK  138  A    between atoms: _326  and  _449
REMARK  139  A    between atoms: _327  and  _329
REMARK  140  A    between atoms: _329  and  _330
REMARK  141  A    between atoms: _329  and  _332
REMARK  142  A    between atoms: _332  and  _333
REMARK  143  A    between atoms: _333  and  _334
REMARK  144  A    between atoms: _339  and  _341
REMARK  145  A    between atoms: _341  and  _342
REMARK  146  A    between atoms: _344  and  _346
REMARK  147  A    between atoms: _346  and  _347
REMARK  148  A    between atoms: _346  and  _349
REMARK  149  A    between atoms: _349  and  _350
REMARK  150  A    between atoms: _353  and  _355
REMARK  151  A    between atoms: _355  and  _356
REMARK  152  A    between atoms: _355  and  _358
REMARK  153  A    between atoms: _358  and  _359
REMARK  154  A    between atoms: _361  and  _363
REMARK  155  A    between atoms: _363  and  _364
REMARK  156  A    between atoms: _366  and  _368
REMARK  157  A    between atoms: _368  and  _369
REMARK  158  A    between atoms: _371  and  _373
REMARK  159  A    between atoms: _373  and  _374
REMARK  160  A    between atoms: _373  and  _376
REMARK  161  A    between atoms: _376  and  _377
REMARK  162  A    between atoms: _382  and  _384
REMARK  163  A    between atoms: _384  and  _385
REMARK  164  A    between atoms: _384  and  _387
REMARK  165  A    between atoms: _387  and  _388
REMARK  166  A    between atoms: _391  and  _393
REMARK  167  A    between atoms: _393  and  _394
REMARK  168  A    between atoms: _393  and  _396
REMARK  169  A    between atoms: _399  and  _401
REMARK  170  A    between atoms: _401  and  _402
REMARK  171  A    between atoms: _401  and  _404
REMARK  172  A    between atoms: _404  and  _405
REMARK  173  A    between atoms: _407  and  _409
REMARK  174  A    between atoms: _409  and  _410
REMARK  175  A    between atoms: _409  and  _412
REMARK  176  A    between atoms: _412  and  _413
REMARK  177  A    between atoms: _423  and  _425
REMARK  178  A    between atoms: _425  and  _426
REMARK  179  A    between atoms: _428  and  _430
REMARK  180  A    between atoms: _430  and  _431
REMARK  181  A    between atoms: _430  and  _433
REMARK  182  A    between atoms: _433  and  _434
REMARK  183  A    between atoms: _434  and  _435
REMARK  184  A    between atoms: _438  and  _440
REMARK  185  A    between atoms: _440  and  _441
REMARK  186  A    between atoms: _443  and  _445
REMARK  187  A    between atoms: _445  and  _446
REMARK  188  A    between atoms: _445  and  _448
REMARK  189  A    between atoms: _448  and  _449
REMARK  190  A    between atoms: _450  and  _452
REMARK  191  A    between atoms: _452  and  _453
REMARK  192  A    between atoms: _456  and  _458
REMARK  193  A    between atoms: _458  and  _459
REMARK  194  A    between atoms: _458  and  _461
REMARK  195  A    between atoms: _461  and  _462
REMARK  196  A    between atoms: _462  and  _463
REMARK  197  A    between atoms: _463  and  _464
REMARK  198  A    between atoms: _473  and  _475
REMARK  199  A    between atoms: _475  and  _476
REMARK  200  A    between atoms: _475  and  _478
REMARK  201  A    between atoms: _478  and  _479
REMARK  202  A    between atoms: _484  and  _485
REMARK  203  A    between atoms: _487  and  _489
REMARK  204  A    between atoms: _489  and  _490
REMARK  205  A    between atoms: _492  and  _494
REMARK  206  A    between atoms: _494  and  _495
REMARK  207  A    between atoms: _494  and  _497
REMARK  208  A    between atoms: _497  and  _498
REMARK  209  A    between atoms: _501  and  _503
REMARK  210  A    between atoms: _503  and  _504
REMARK  211  A    between atoms: _503  and  _506
REMARK  212  A    between atoms: _506  and  _507
REMARK  213  A    between atoms: _512  and  _513
REMARK  214  A    between atoms: _515  and  _517
REMARK  215  A    between atoms: _517  and  _518
REMARK  216  A    between atoms: _517  and  _520
REMARK  217  A    between atoms: _520  and  _521
REMARK                            x       y       z     vdW  Elec       q    Type
REMARK                         _______ _______ _______ _____ _____    ______ ____
ROOT
ATOM      1  CA  ILE A   3      14.934   3.497  25.082  0.00  0.00    +0.149 C 
ENDROOT
BRANCH   1   4
ATOM      2  C   GLY A   2      14.353   3.761  27.416  0.00  0.00    +0.243 C 
ATOM      3  O   GLY A   2      15.383   3.193  27.771  0.00  0.00    -0.273 OA
ATOM      4  N   ILE A   3      14.043   3.953  26.139  0.00  0.00    -0.297 N 
ATOM      5  H   ILE A   3      13.155   4.434  25.892  0.00  0.00    +0.150 HD
BRANCH   2   6
ATOM      6  CA  GLY A   2      13.365   4.254  28.456  0.00  0.00    +0.176 C 
BRANCH   6   8
ATOM      7  C   TYR A   1      12.300   2.247  29.285  0.00  0.00    +0.239 C 
ATOM      8  N   GLY A   2      13.209   3.205  29.448  0.00  0.00    -0.296 N 
ATOM      9  H   GLY A   2      13.814   3.202  30.294  0.00  0.00    +0.150 HD
ATOM     10  O   TYR A   1      11.530   2.209  28.331  0.00  0.00    -0.274 OA
BRANCH   7  11
ATOM     11  CA  TYR A   1      12.250   1.180  30.370  0.00  0.00    +0.149 C 
BRANCH  11  12
ATOM     12  N   TYR A   1      11.121   0.273  30.179  0.00  0.00    -0.238 NA
ATOM     13  H   TYR A   1      10.991  -0.198  29.261  0.00  0.00    +0.142 HD
ENDBRANCH  11  12
BRANCH  11  14
ATOM     14  CB  TYR A   1      13.562   0.394  30.355  0.00  0.00    +0.053 C 
BRANCH  14  15
ATOM     15  CG  TYR A   1      13.646  -0.701  31.395  0.00  0.00    -0.020 A 
ATOM     16  CD2 TYR A   1      13.850  -0.398  32.740  0.00  0.00    -0.001 A 
ATOM     17  CE2 TYR A   1      13.930  -1.403  33.701  0.00  0.00    +0.036 A 
ATOM     18  CZ  TYR A   1      13.801  -2.728  33.318  0.00  0.00    +0.134 A 
ATOM     19  CE1 TYR A   1      13.593  -3.056  31.986  0.00  0.00    +0.036 A 
ATOM     20  CD1 TYR A   1      13.518  -2.044  31.033  0.00  0.00    -0.001 A 
BRANCH  18  21
ATOM     21  OH  TYR A   1      13.898  -3.722  34.268  0.00  0.00    -0.506 OA
ATOM     22  HH  TYR A   1      13.060  -4.249  34.280  0.00  0.00    +0.292 HD
ENDBRANCH  18  21
ENDBRANCH  14  15
ENDBRANCH  11  14
ENDBRANCH   7  11
ENDBRANCH   6   8
ENDBRANCH   2   6
ENDBRANCH   1   4
BRANCH   1  23
ATOM     23  C   ILE A   3      15.698   4.669  24.464  0.00  0.00    +0.241 C 
ATOM     24  N   TYR A   4      17.020   4.546  24.437  0.00  0.00    -0.297 N 
ATOM     25  H   TYR A   4      17.450   3.675  24.809  0.00  0.00    +0.150 HD
ATOM     26  O   ILE A   3      15.105   5.650  24.016  0.00  0.00    -0.273 OA
BRANCH  24  27
ATOM     27  CA  TYR A   4      17.890   5.586  23.905  0.00  0.00    +0.153 C 
BRANCH  27  28
ATOM     28  C   TYR A   4      18.765   5.106  22.759  0.00  0.00    +0.241 C 
ATOM     29  O   TYR A   4      19.152   3.941  22.703  0.00  0.00    -0.273 OA
ATOM     30  N   THR A   5      19.090   6.019  21.852  0.00  0.00    -0.296 N 
ATOM     31  H   THR A   5      18.711   6.984  21.935  0.00  0.00    +0.150 HD
BRANCH  30  32
ATOM     32  CA  THR A   5      19.972   5.685  20.742  0.00  0.00    +0.164 C 
BRANCH  32  33
ATOM     33  CB  THR A   5      20.031   6.811  19.690  0.00  0.00    +0.136 C 
ATOM     34  CG2 THR A   5      20.972   6.422  18.548  0.00  0.00    +0.034 C 
BRANCH  33  35
ATOM     35  OG1 THR A   5      18.721   7.051  19.170  0.00  0.00    -0.382 OA
ATOM     36  HG1 THR A   5      18.762   7.774  18.495  0.00  0.00    +0.210 HD
ENDBRANCH  33  35
ENDBRANCH  32  33
BRANCH  32  37
ATOM     37  C   THR A   5      21.362   5.540  21.354  0.00  0.00    +0.229 C 
ATOM     38  O   THR A   5      21.777   6.365  22.166  0.00  0.00    -0.286 OA
ENDBRANCH  32  37
ENDBRANCH  30  32
ENDBRANCH  27  28
BRANCH  27  39
ATOM     39  CB  TYR A   4      18.818   6.109  25.002  0.00  0.00    +0.055 C 
BRANCH  39  40
ATOM     40  CG  TYR A   4      18.124   6.623  26.244  0.00  0.00    -0.020 A 
ATOM     41  CD2 TYR A   4      17.551   5.742  27.171  0.00  0.00    -0.001 A 
ATOM     42  CE2 TYR A   4      16.929   6.215  28.331  0.00  0.00    +0.036 A 
ATOM     43  CZ  TYR A   4      16.878   7.583  28.563  0.00  0.00    +0.134 A 
ATOM     44  CE1 TYR A   4      17.440   8.469  27.657  0.00  0.00    +0.036 A 
ATOM     45  CD1 TYR A   4      18.058   7.987  26.505  0.00  0.00    -0.001 A 
BRANCH  43  46
ATOM     46  OH  TYR A   4      16.255   8.077  29.681  0.00  0.00    -0.506 OA
ATOM     47  HH  TYR A   4      15.909   7.325  30.224  0.00  0.00    +0.292 HD
ENDBRANCH  43  46
ENDBRANCH  39  40
ENDBRANCH  27  39
ENDBRANCH  24  27
ENDBRANCH   1  23
BRANCH   1  48
ATOM     48  CB  ILE A   3      14.158   2.755  23.968  0.00  0.00    +0.027 C 
ATOM     49  CG2 ILE A   3      15.139   2.006  23.075  0.00  0.00    +0.002 C 
BRANCH  48  50
ATOM     50  CG1 ILE A   3      13.139   1.777  24.585  0.00  0.00    +0.002 C 
ATOM     51  CD1 ILE A   3      13.751   0.708  25.482  0.00  0.00    +0.000 C 
ENDBRANCH  48  50
ENDBRANCH   1  48
TORSDOF 20
REMARK  Name = ../refined-set-2016/2boh/2boh_pocket.pdb
REMARK  217 active torsions:
REMARK  status: ('A' for Active; 'I' for Inactive)
REMARK    1  A    between atoms: _1  and  _5
REMARK    2  A    between atoms: _5  and  _6
REMARK    3  A    between atoms: _5  and  _8
REMARK    4  A    between atoms: _8  and  _9
REMARK    5  A    between atoms: _12  and  _14
REMARK    6  A    between atoms: _14  and  _15
REMARK    7  A    between atoms: _14  and  _17
REMARK    8  A    between atoms: _20  and  _22
REMARK    9  A    between atoms: _22  and  _23
REMARK   10  A    between atoms: _22  and  _25
REMARK   11  A    between atoms: _25  and  _26
REMARK   12  A    between atoms: _32  and  _34
REMARK   13  A    between atoms: _34  and  _35
REMARK   14  A    between atoms: _34  and  _37
REMARK   15  A    between atoms: _39  and  _41
REMARK   16  A    between atoms: _41  and  _42
REMARK   17  A    between atoms: _41  and  _44
REMARK   18  A    between atoms: _44  and  _45
REMARK   19  A    between atoms: _50  and  _52
REMARK   20  A    between atoms: _52  and  _53
REMARK   21  A    between atoms: _52  and  _55
REMARK   22  A    between atoms: _55  and  _56
REMARK   23  A    between atoms: _56  and  _57
REMARK   24  A    between atoms: _62  and  _64
REMARK   25  A    between atoms: _64  and  _65
REMARK   26  A    between atoms: _64  and  _67
REMARK   27  A    between atoms: _67  and  _68
REMARK   28  A    between atoms: _74  and  _76
REMARK   29  A    between atoms: _76  and  _77
REMARK   30  A    between atoms: _76  and  _79
REMARK   31  A    between atoms: _79  and  _80
REMARK   32  A    between atoms: _83  and  _85
REMARK   33  A    between atoms: _85  and  _86
REMARK   34  A    between atoms: _85  and  _88
REMARK   35  A    between atoms: _88  and  _89
REMARK   36  A    between atoms: _89  and  _90
REMARK   37  A    between atoms: _90  and  _91
REMARK   38  A    between atoms: _91  and  _92
REMARK   39  A    between atoms: _96  and  _98
REMARK   40  A    between atoms: _98  and  _99
REMARK   41  A    between atoms: _98  and  _101
REMARK   42  A    between atoms: _101  and  _102
REMARK   43  A    between atoms: _102  and  _103
REMARK   44  A    between atoms: _106  and  _108
REMARK   45  A    between atoms: _108  and  _109
REMARK   46  A    between atoms: _108  and  _111
REMARK   47  A    between atoms: _111  and  _112
REMARK   48  A    between atoms: _115  and  _117
REMARK   49  A    between atoms: _117  and  _118
REMARK   50  A    between atoms: _117  and  _120
REMARK   51  A    between atoms: _120  and  _121
REMARK   52  A    between atoms: _126  and  _127
REMARK   53  A    between atoms: _129  and  _131
REMARK   54  A    between atoms: _131  and  _132
REMARK   55  A    between atoms: _131  and  _134
REMARK   56  A    between atoms: _134  and  _135
REMARK   57  A    between atoms: _138  and  _140
REMARK   58  A    between atoms: _140  and  _141
REMARK   59  A    between atoms: _140  and  _143
REMARK   60  A    between atoms: _143  and  _144
REMARK   61  A    between atoms: _147  and  _149
REMARK   62  A    between atoms: _149  and  _150
REMARK   63  A    between atoms: _149  and  _152
REMARK   64  A    between atoms: _155  and  _157
REMARK   65  A    between atoms: _157  and  _158
REMARK   66  A    between atoms: _157  and  _160
REMARK   67  A    between atoms: _160  and  _161
REMARK   68  A    between atoms: _161  and  _162
REMARK   69  A    between atoms: _162  and  _163
REMARK   70  A    between atoms: _172  and  _174
REMARK   71  A    between atoms: _174  and  _175
REMARK   72  A    between atoms: _174  and  _177
REMARK   73  A    between atoms: _177  and  _178
REMARK   74  A    between atoms: _183  and  _185
REMARK   75  A    between atoms: _185  and  _186
REMARK   76  A    between atoms: _185  and  _188
REMARK   77  A    between atoms: _188  and  _189
REMARK   78  A    between atoms: _189  and  _190
REMARK   79  A    between atoms: _193  and  _195
REMARK   80  A    between atoms: _195  and  _196
REMARK   81  A    between atoms: _195  and  _198
REMARK   82  A    between atoms: _198  and  _199
REMARK   83  A    between atoms: _199  and  _200
REMARK   84  A    between atoms: _200  and  _201
REMARK   85  A    between atoms: _201  and  _202
REMARK   86  A    between atoms: _206  and  _208
REMARK   87  A    between atoms: _208  and  _209
REMARK   88  A    between atoms: _211  and  _213
REMARK   89  A    between atoms: _213  and  _214
REMARK   90  A    between atoms: _213  and  _216
REMARK   91  A    between atoms: _219  and  _221
REMARK   92  A    between atoms: _221  and  _222
REMARK   93  A    between atoms: _221  and  _224
REMARK   94  A    between atoms: _224  and  _225
REMARK   95  A    between atoms: _227  and  _229
REMARK   96  A    between atoms: _229  and  _230
REMARK   97  A    between atoms: _229  and  _232
REMARK   98  A    between atoms: _232  and  _233
REMARK   99  A    between atoms: _235  and  _237
REMARK  100  A    between atoms: _237  and  _238
REMARK  101  A    between atoms: _237  and  _240
REMARK  102  A    between atoms: _240  and  _241
REMARK  103  A    between atoms: _247  and  _249
REMARK  104  A    between atoms: _249  and  _250
REMARK  105  A    between atoms: _249  and  _252
REMARK  106  A    between atoms: _252  and  _253
REMARK  107  A    between atoms: _256  and  _258
REMARK  108  A    between atoms: _258  and  _259
REMARK  109  A    between atoms: _258  and  _261
REMARK  110  A    between atoms: _261  and  _262
REMARK  111  A    between atoms: _262  and  _263
REMARK  112  A    between atoms: _265  and  _267
REMARK  113  A    between atoms: _267  and  _268
REMARK  114  A    between atoms: _267  and  _270
REMARK  115  A    between atoms: _270  and  _271
REMARK  116  A    between atoms: _277  and  _279
REMARK  117  A    between atoms: _279  and  _280
REMARK  118  A    between atoms: _279  and  _282
REMARK  119  A    between atoms: _284  and  _286
REMARK  120  A    between atoms: _286  and  _287
REMARK  121  A    between atoms: _290  and  _292
REMARK  122  A    between atoms: _292  and  _293
REMARK  123  A    between atoms: _295  and  _297
REMARK  124  A    between atoms: _297  and  _298
REMARK  125  A    between atoms: _297  and  _300
REMARK  126  A    between atoms: _300  and  _301
REMARK  127  A    between atoms: _301  and  _302
REMARK  128  A    between atoms: _305  and  _307
REMARK  129  A    between atoms: _307  and  _308
REMARK  130  A    between atoms: _307  and  _310
REMARK  131  A    between atoms: _310  and  _311
REMARK  132  A    between atoms: _314  and  _316
REMARK  133  A    between atoms: _316  and  _317
REMARK  134  A    between atoms: _320  and  _322
REMARK  135  A    between atoms: _322  and  _323
REMARK  136  A    between atoms: _322  and  _325
REMARK  137  A    between atoms: _325  and  _326
REMARK  138  A    between atoms: _326  and  _449
REMARK  139  A    between atoms: _327  and  _329
REMARK  140  A    between atoms: _329  and  _330
REMARK  141  A    between atoms: _329  and  _332
REMARK  142  A    between atoms: _332  and  _333
REMARK  143  A    between atoms: _333  and  _334
REMARK  144  A    between atoms: _339  and  _341
REMARK  145  A    between atoms: _341  and  _342
REMARK  146  A    between atoms: _344  and  _346
REMARK  147  A    between atoms: _346  and  _347
REMARK  148  A    between atoms: _346  and  _349
REMARK  149  A    between atoms: _349  and  _350
REMARK  150  A    between atoms: _353  and  _355
REMARK  151  A    between atoms: _355  and  _356
REMARK  152  A    between atoms: _355  and  _358
REMARK  153  A    between atoms: _358  and  _359
REMARK  154  A    between atoms: _361  and  _363
REMARK  155  A    between atoms: _363  and  _364
REMARK  156  A    between atoms: _366  and  _368
REMARK  157  A    between atoms: _368  and  _369
REMARK  158  A    between atoms: _371  and  _373
REMARK  159  A    between atoms: _373  and  _374
REMARK  160  A    between atoms: _373  and  _376
REMARK  161  A    between atoms: _376  and  _377
REMARK  162  A    between atoms: _382  and  _384
REMARK  163  A    between atoms: _384  and  _385
REMARK  164  A    between atoms: _384  and  _387
REMARK  165  A    between atoms: _387  and  _388
REMARK  166  A    between atoms: _391  and  _393
REMARK  167  A    between atoms: _393  and  _394
REMARK  168  A    between atoms: _393  and  _396
REMARK  169  A    between atoms: _399  and  _401
REMARK  170  A    between atoms: _401  and  _402
REMARK  171  A    between atoms: _401  and  _404
REMARK  172  A    between atoms: _404  and  _405
REMARK  173  A    between atoms: _407  and  _409
REMARK  174  A    between atoms: _409  and  _410
REMARK  175  A    between atoms: _409  and  _412
REMARK  176  A    between atoms: _412  and  _413
REMARK  177  A    between atoms: _423  and  _425
REMARK  178  A    between atoms: _425  and  _426
REMARK  179  A    between atoms: _428  and  _430
REMARK  180  A    between atoms: _430  and  _431
REMARK  181  A    between atoms: _430  and  _433
REMARK  182  A    between atoms: _433  and  _434
REMARK  183  A    between atoms: _434  and  _435
REMARK  184  A    between atoms: _438  and  _440
REMARK  185  A    between atoms: _440  and  _441
REMARK  186  A    between atoms: _443  and  _445
REMARK  187  A    between atoms: _445  and  _446
REMARK  188  A    between atoms: _445  and  _448
REMARK  189  A    between atoms: _448  and  _449
REMARK  190  A    between atoms: _450  and  _452
REMARK  191  A    between atoms: _452  and  _453
REMARK  192  A    between atoms: _456  and  _458
REMARK  193  A    between atoms: _458  and  _459
REMARK  194  A    between atoms: _458  and  _461
REMARK  195  A    between atoms: _461  and  _462
REMARK  196  A    between atoms: _462  and  _463
REMARK  197  A    between atoms: _463  and  _464
REMARK  198  A    between atoms: _473  and  _475
REMARK  199  A    between atoms: _475  and  _476
REMARK  200  A    between atoms: _475  and  _478
REMARK  201  A    between atoms: _478  and  _479
REMARK  202  A    between atoms: _484  and  _485
REMARK  203  A    between atoms: _487  and  _489
REMARK  204  A    between atoms: _489  and  _490
REMARK  205  A    between atoms: _492  and  _494
REMARK  206  A    between atoms: _494  and  _495
REMARK  207  A    between atoms: _494  and  _497
REMARK  208  A    between atoms: _497  and  _498
REMARK  209  A    between atoms: _501  and  _503
REMARK  210  A    between atoms: _503  and  _504
REMARK  211  A    between atoms: _503  and  _506
REMARK  212  A    between atoms: _506  and  _507
REMARK  213  A    between atoms: _512  and  _513
REMARK  214  A    between atoms: _515  and  _517
REMARK  215  A    between atoms: _517  and  _518
REMARK  216  A    between atoms: _517  and  _520
REMARK  217  A    between atoms: _520  and  _521
REMARK                            x       y       z     vdW  Elec       q    Type
REMARK                         _______ _______ _______ _____ _____    ______ ____
ROOT
ATOM      1  O   HOH     1       4.211   7.464  17.339  0.00  0.00    +0.000 OA
ENDROOT
TORSDOF 0
REMARK  Name = ../refined-set-2016/2boh/2boh_pocket.pdb
REMARK  217 active torsions:
REMARK  status: ('A' for Active; 'I' for Inactive)
REMARK    1  A    between atoms: _1  and  _5
REMARK    2  A    between atoms: _5  and  _6
REMARK    3  A    between atoms: _5  and  _8
REMARK    4  A    between atoms: _8  and  _9
REMARK    5  A    between atoms: _12  and  _14
REMARK    6  A    between atoms: _14  and  _15
REMARK    7  A    between atoms: _14  and  _17
REMARK    8  A    between atoms: _20  and  _22
REMARK    9  A    between atoms: _22  and  _23
REMARK   10  A    between atoms: _22  and  _25
REMARK   11  A    between atoms: _25  and  _26
REMARK   12  A    between atoms: _32  and  _34
REMARK   13  A    between atoms: _34  and  _35
REMARK   14  A    between atoms: _34  and  _37
REMARK   15  A    between atoms: _39  and  _41
REMARK   16  A    between atoms: _41  and  _42
REMARK   17  A    between atoms: _41  and  _44
REMARK   18  A    between atoms: _44  and  _45
REMARK   19  A    between atoms: _50  and  _52
REMARK   20  A    between atoms: _52  and  _53
REMARK   21  A    between atoms: _52  and  _55
REMARK   22  A    between atoms: _55  and  _56
REMARK   23  A    between atoms: _56  and  _57
REMARK   24  A    between atoms: _62  and  _64
REMARK   25  A    between atoms: _64  and  _65
REMARK   26  A    between atoms: _64  and  _67
REMARK   27  A    between atoms: _67  and  _68
REMARK   28  A    between atoms: _74  and  _76
REMARK   29  A    between atoms: _76  and  _77
REMARK   30  A    between atoms: _76  and  _79
REMARK   31  A    between atoms: _79  and  _80
REMARK   32  A    between atoms: _83  and  _85
REMARK   33  A    between atoms: _85  and  _86
REMARK   34  A    between atoms: _85  and  _88
REMARK   35  A    between atoms: _88  and  _89
REMARK   36  A    between atoms: _89  and  _90
REMARK   37  A    between atoms: _90  and  _91
REMARK   38  A    between atoms: _91  and  _92
REMARK   39  A    between atoms: _96  and  _98
REMARK   40  A    between atoms: _98  and  _99
REMARK   41  A    between atoms: _98  and  _101
REMARK   42  A    between atoms: _101  and  _102
REMARK   43  A    between atoms: _102  and  _103
REMARK   44  A    between atoms: _106  and  _108
REMARK   45  A    between atoms: _108  and  _109
REMARK   46  A    between atoms: _108  and  _111
REMARK   47  A    between atoms: _111  and  _112
REMARK   48  A    between atoms: _115  and  _117
REMARK   49  A    between atoms: _117  and  _118
REMARK   50  A    between atoms: _117  and  _120
REMARK   51  A    between atoms: _120  and  _121
REMARK   52  A    between atoms: _126  and  _127
REMARK   53  A    between atoms: _129  and  _131
REMARK   54  A    between atoms: _131  and  _132
REMARK   55  A    between atoms: _131  and  _134
REMARK   56  A    between atoms: _134  and  _135
REMARK   57  A    between atoms: _138  and  _140
REMARK   58  A    between atoms: _140  and  _141
REMARK   59  A    between atoms: _140  and  _143
REMARK   60  A    between atoms: _143  and  _144
REMARK   61  A    between atoms: _147  and  _149
REMARK   62  A    between atoms: _149  and  _150
REMARK   63  A    between atoms: _149  and  _152
REMARK   64  A    between atoms: _155  and  _157
REMARK   65  A    between atoms: _157  and  _158
REMARK   66  A    between atoms: _157  and  _160
REMARK   67  A    between atoms: _160  and  _161
REMARK   68  A    between atoms: _161  and  _162
REMARK   69  A    between atoms: _162  and  _163
REMARK   70  A    between atoms: _172  and  _174
REMARK   71  A    between atoms: _174  and  _175
REMARK   72  A    between atoms: _174  and  _177
REMARK   73  A    between atoms: _177  and  _178
REMARK   74  A    between atoms: _183  and  _185
REMARK   75  A    between atoms: _185  and  _186
REMARK   76  A    between atoms: _185  and  _188
REMARK   77  A    between atoms: _188  and  _189
REMARK   78  A    between atoms: _189  and  _190
REMARK   79  A    between atoms: _193  and  _195
REMARK   80  A    between atoms: _195  and  _196
REMARK   81  A    between atoms: _195  and  _198
REMARK   82  A    between atoms: _198  and  _199
REMARK   83  A    between atoms: _199  and  _200
REMARK   84  A    between atoms: _200  and  _201
REMARK   85  A    between atoms: _201  and  _202
REMARK   86  A    between atoms: _206  and  _208
REMARK   87  A    between atoms: _208  and  _209
REMARK   88  A    between atoms: _211  and  _213
REMARK   89  A    between atoms: _213  and  _214
REMARK   90  A    between atoms: _213  and  _216
REMARK   91  A    between atoms: _219  and  _221
REMARK   92  A    between atoms: _221  and  _222
REMARK   93  A    between atoms: _221  and  _224
REMARK   94  A    between atoms: _224  and  _225
REMARK   95  A    between atoms: _227  and  _229
REMARK   96  A    between atoms: _229  and  _230
REMARK   97  A    between atoms: _229  and  _232
REMARK   98  A    between atoms: _232  and  _233
REMARK   99  A    between atoms: _235  and  _237
REMARK  100  A    between atoms: _237  and  _238
REMARK  101  A    between atoms: _237  and  _240
REMARK  102  A    between atoms: _240  and  _241
REMARK  103  A    between atoms: _247  and  _249
REMARK  104  A    between atoms: _249  and  _250
REMARK  105  A    between atoms: _249  and  _252
REMARK  106  A    between atoms: _252  and  _253
REMARK  107  A    between atoms: _256  and  _258
REMARK  108  A    between atoms: _258  and  _259
REMARK  109  A    between atoms: _258  and  _261
REMARK  110  A    between atoms: _261  and  _262
REMARK  111  A    between atoms: _262  and  _263
REMARK  112  A    between atoms: _265  and  _267
REMARK  113  A    between atoms: _267  and  _268
REMARK  114  A    between atoms: _267  and  _270
REMARK  115  A    between atoms: _270  and  _271
REMARK  116  A    between atoms: _277  and  _279
REMARK  117  A    between atoms: _279  and  _280
REMARK  118  A    between atoms: _279  and  _282
REMARK  119  A    between atoms: _284  and  _286
REMARK  120  A    between atoms: _286  and  _287
REMARK  121  A    between atoms: _290  and  _292
REMARK  122  A    between atoms: _292  and  _293
REMARK  123  A    between atoms: _295  and  _297
REMARK  124  A    between atoms: _297  and  _298
REMARK  125  A    between atoms: _297  and  _300
REMARK  126  A    between atoms: _300  and  _301
REMARK  127  A    between atoms: _301  and  _302
REMARK  128  A    between atoms: _305  and  _307
REMARK  129  A    between atoms: _307  and  _308
REMARK  130  A    between atoms: _307  and  _310
REMARK  131  A    between atoms: _310  and  _311
REMARK  132  A    between atoms: _314  and  _316
REMARK  133  A    between atoms: _316  and  _317
REMARK  134  A    between atoms: _320  and  _322
REMARK  135  A    between atoms: _322  and  _323
REMARK  136  A    between atoms: _322  and  _325
REMARK  137  A    between atoms: _325  and  _326
REMARK  138  A    between atoms: _326  and  _449
REMARK  139  A    between atoms: _327  and  _329
REMARK  140  A    between atoms: _329  and  _330
REMARK  141  A    between atoms: _329  and  _332
REMARK  142  A    between atoms: _332  and  _333
REMARK  143  A    between atoms: _333  and  _334
REMARK  144  A    between atoms: _339  and  _341
REMARK  145  A    between atoms: _341  and  _342
REMARK  146  A    between atoms: _344  and  _346
REMARK  147  A    between atoms: _346  and  _347
REMARK  148  A    between atoms: _346  and  _349
REMARK  149  A    between atoms: _349  and  _350
REMARK  150  A    between atoms: _353  and  _355
REMARK  151  A    between atoms: _355  and  _356
REMARK  152  A    between atoms: _355  and  _358
REMARK  153  A    between atoms: _358  and  _359
REMARK  154  A    between atoms: _361  and  _363
REMARK  155  A    between atoms: _363  and  _364
REMARK  156  A    between atoms: _366  and  _368
REMARK  157  A    between atoms: _368  and  _369
REMARK  158  A    between atoms: _371  and  _373
REMARK  159  A    between atoms: _373  and  _374
REMARK  160  A    between atoms: _373  and  _376
REMARK  161  A    between atoms: _376  and  _377
REMARK  162  A    between atoms: _382  and  _384
REMARK  163  A    between atoms: _384  and  _385
REMARK  164  A    between atoms: _384  and  _387
REMARK  165  A    between atoms: _387  and  _388
REMARK  166  A    between atoms: _391  and  _393
REMARK  167  A    between atoms: _393  and  _394
REMARK  168  A    between atoms: _393  and  _396
REMARK  169  A    between atoms: _399  and  _401
REMARK  170  A    between atoms: _401  and  _402
REMARK  171  A    between atoms: _401  and  _404
REMARK  172  A    between atoms: _404  and  _405
REMARK  173  A    between atoms: _407  and  _409
REMARK  174  A    between atoms: _409  and  _410
REMARK  175  A    between atoms: _409  and  _412
REMARK  176  A    between atoms: _412  and  _413
REMARK  177  A    between atoms: _423  and  _425
REMARK  178  A    between atoms: _425  and  _426
REMARK  179  A    between atoms: _428  and  _430
REMARK  180  A    between atoms: _430  and  _431
REMARK  181  A    between atoms: _430  and  _433
REMARK  182  A    between atoms: _433  and  _434
REMARK  183  A    between atoms: _434  and  _435
REMARK  184  A    between atoms: _438  and  _440
REMARK  185  A    between atoms: _440  and  _441
REMARK  186  A    between atoms: _443  and  _445
REMARK  187  A    between atoms: _445  and  _446
REMARK  188  A    between atoms: _445  and  _448
REMARK  189  A    between atoms: _448  and  _449
REMARK  190  A    between atoms: _450  and  _452
REMARK  191  A    between atoms: _452  and  _453
REMARK  192  A    between atoms: _456  and  _458
REMARK  193  A    between atoms: _458  and  _459
REMARK  194  A    between atoms: _458  and  _461
REMARK  195  A    between atoms: _461  and  _462
REMARK  196  A    between atoms: _462  and  _463
REMARK  197  A    between atoms: _463  and  _464
REMARK  198  A    between atoms: _473  and  _475
REMARK  199  A    between atoms: _475  and  _476
REMARK  200  A    between atoms: _475  and  _478
REMARK  201  A    between atoms: _478  and  _479
REMARK  202  A    between atoms: _484  and  _485
REMARK  203  A    between atoms: _487  and  _489
REMARK  204  A    between atoms: _489  and  _490
REMARK  205  A    between atoms: _492  and  _494
REMARK  206  A    between atoms: _494  and  _495
REMARK  207  A    between atoms: _494  and  _497
REMARK  208  A    between atoms: _497  and  _498
REMARK  209  A    between atoms: _501  and  _503
REMARK  210  A    between atoms: _503  and  _504
REMARK  211  A    between atoms: _503  and  _506
REMARK  212  A    between atoms: _506  and  _507
REMARK  213  A    between atoms: _512  and  _513
REMARK  214  A    between atoms: _515  and  _517
REMARK  215  A    between atoms: _517  and  _518
REMARK  216  A    between atoms: _517  and  _520
REMARK  217  A    between atoms: _520  and  _521
REMARK                            x       y       z     vdW  Elec       q    Type
REMARK                         _______ _______ _______ _____ _____    ______ ____
ROOT
ATOM      1  O   HOH     1       6.253  10.253  19.212  0.00  0.00    +0.000 OA
ENDROOT
TORSDOF 0
REMARK  Name = ../refined-set-2016/2boh/2boh_pocket.pdb
REMARK  217 active torsions:
REMARK  status: ('A' for Active; 'I' for Inactive)
REMARK    1  A    between atoms: _1  and  _5
REMARK    2  A    between atoms: _5  and  _6
REMARK    3  A    between atoms: _5  and  _8
REMARK    4  A    between atoms: _8  and  _9
REMARK    5  A    between atoms: _12  and  _14
REMARK    6  A    between atoms: _14  and  _15
REMARK    7  A    between atoms: _14  and  _17
REMARK    8  A    between atoms: _20  and  _22
REMARK    9  A    between atoms: _22  and  _23
REMARK   10  A    between atoms: _22  and  _25
REMARK   11  A    between atoms: _25  and  _26
REMARK   12  A    between atoms: _32  and  _34
REMARK   13  A    between atoms: _34  and  _35
REMARK   14  A    between atoms: _34  and  _37
REMARK   15  A    between atoms: _39  and  _41
REMARK   16  A    between atoms: _41  and  _42
REMARK   17  A    between atoms: _41  and  _44
REMARK   18  A    between atoms: _44  and  _45
REMARK   19  A    between atoms: _50  and  _52
REMARK   20  A    between atoms: _52  and  _53
REMARK   21  A    between atoms: _52  and  _55
REMARK   22  A    between atoms: _55  and  _56
REMARK   23  A    between atoms: _56  and  _57
REMARK   24  A    between atoms: _62  and  _64
REMARK   25  A    between atoms: _64  and  _65
REMARK   26  A    between atoms: _64  and  _67
REMARK   27  A    between atoms: _67  and  _68
REMARK   28  A    between atoms: _74  and  _76
REMARK   29  A    between atoms: _76  and  _77
REMARK   30  A    between atoms: _76  and  _79
REMARK   31  A    between atoms: _79  and  _80
REMARK   32  A    between atoms: _83  and  _85
REMARK   33  A    between atoms: _85  and  _86
REMARK   34  A    between atoms: _85  and  _88
REMARK   35  A    between atoms: _88  and  _89
REMARK   36  A    between atoms: _89  and  _90
REMARK   37  A    between atoms: _90  and  _91
REMARK   38  A    between atoms: _91  and  _92
REMARK   39  A    between atoms: _96  and  _98
REMARK   40  A    between atoms: _98  and  _99
REMARK   41  A    between atoms: _98  and  _101
REMARK   42  A    between atoms: _101  and  _102
REMARK   43  A    between atoms: _102  and  _103
REMARK   44  A    between atoms: _106  and  _108
REMARK   45  A    between atoms: _108  and  _109
REMARK   46  A    between atoms: _108  and  _111
REMARK   47  A    between atoms: _111  and  _112
REMARK   48  A    between atoms: _115  and  _117
REMARK   49  A    between atoms: _117  and  _118
REMARK   50  A    between atoms: _117  and  _120
REMARK   51  A    between atoms: _120  and  _121
REMARK   52  A    between atoms: _126  and  _127
REMARK   53  A    between atoms: _129  and  _131
REMARK   54  A    between atoms: _131  and  _132
REMARK   55  A    between atoms: _131  and  _134
REMARK   56  A    between atoms: _134  and  _135
REMARK   57  A    between atoms: _138  and  _140
REMARK   58  A    between atoms: _140  and  _141
REMARK   59  A    between atoms: _140  and  _143
REMARK   60  A    between atoms: _143  and  _144
REMARK   61  A    between atoms: _147  and  _149
REMARK   62  A    between atoms: _149  and  _150
REMARK   63  A    between atoms: _149  and  _152
REMARK   64  A    between atoms: _155  and  _157
REMARK   65  A    between atoms: _157  and  _158
REMARK   66  A    between atoms: _157  and  _160
REMARK   67  A    between atoms: _160  and  _161
REMARK   68  A    between atoms: _161  and  _162
REMARK   69  A    between atoms: _162  and  _163
REMARK   70  A    between atoms: _172  and  _174
REMARK   71  A    between atoms: _174  and  _175
REMARK   72  A    between atoms: _174  and  _177
REMARK   73  A    between atoms: _177  and  _178
REMARK   74  A    between atoms: _183  and  _185
REMARK   75  A    between atoms: _185  and  _186
REMARK   76  A    between atoms: _185  and  _188
REMARK   77  A    between atoms: _188  and  _189
REMARK   78  A    between atoms: _189  and  _190
REMARK   79  A    between atoms: _193  and  _195
REMARK   80  A    between atoms: _195  and  _196
REMARK   81  A    between atoms: _195  and  _198
REMARK   82  A    between atoms: _198  and  _199
REMARK   83  A    between atoms: _199  and  _200
REMARK   84  A    between atoms: _200  and  _201
REMARK   85  A    between atoms: _201  and  _202
REMARK   86  A    between atoms: _206  and  _208
REMARK   87  A    between atoms: _208  and  _209
REMARK   88  A    between atoms: _211  and  _213
REMARK   89  A    between atoms: _213  and  _214
REMARK   90  A    between atoms: _213  and  _216
REMARK   91  A    between atoms: _219  and  _221
REMARK   92  A    between atoms: _221  and  _222
REMARK   93  A    between atoms: _221  and  _224
REMARK   94  A    between atoms: _224  and  _225
REMARK   95  A    between atoms: _227  and  _229
REMARK   96  A    between atoms: _229  and  _230
REMARK   97  A    between atoms: _229  and  _232
REMARK   98  A    between atoms: _232  and  _233
REMARK   99  A    between atoms: _235  and  _237
REMARK  100  A    between atoms: _237  and  _238
REMARK  101  A    between atoms: _237  and  _240
REMARK  102  A    between atoms: _240  and  _241
REMARK  103  A    between atoms: _247  and  _249
REMARK  104  A    between atoms: _249  and  _250
REMARK  105  A    between atoms: _249  and  _252
REMARK  106  A    between atoms: _252  and  _253
REMARK  107  A    between atoms: _256  and  _258
REMARK  108  A    between atoms: _258  and  _259
REMARK  109  A    between atoms: _258  and  _261
REMARK  110  A    between atoms: _261  and  _262
REMARK  111  A    between atoms: _262  and  _263
REMARK  112  A    between atoms: _265  and  _267
REMARK  113  A    between atoms: _267  and  _268
REMARK  114  A    between atoms: _267  and  _270
REMARK  115  A    between atoms: _270  and  _271
REMARK  116  A    between atoms: _277  and  _279
REMARK  117  A    between atoms: _279  and  _280
REMARK  118  A    between atoms: _279  and  _282
REMARK  119  A    between atoms: _284  and  _286
REMARK  120  A    between atoms: _286  and  _287
REMARK  121  A    between atoms: _290  and  _292
REMARK  122  A    between atoms: _292  and  _293
REMARK  123  A    between atoms: _295  and  _297
REMARK  124  A    between atoms: _297  and  _298
REMARK  125  A    between atoms: _297  and  _300
REMARK  126  A    between atoms: _300  and  _301
REMARK  127  A    between atoms: _301  and  _302
REMARK  128  A    between atoms: _305  and  _307
REMARK  129  A    between atoms: _307  and  _308
REMARK  130  A    between atoms: _307  and  _310
REMARK  131  A    between atoms: _310  and  _311
REMARK  132  A    between atoms: _314  and  _316
REMARK  133  A    between atoms: _316  and  _317
REMARK  134  A    between atoms: _320  and  _322
REMARK  135  A    between atoms: _322  and  _323
REMARK  136  A    between atoms: _322  and  _325
REMARK  137  A    between atoms: _325  and  _326
REMARK  138  A    between atoms: _326  and  _449
REMARK  139  A    between atoms: _327  and  _329
REMARK  140  A    between atoms: _329  and  _330
REMARK  141  A    between atoms: _329  and  _332
REMARK  142  A    between atoms: _332  and  _333
REMARK  143  A    between atoms: _333  and  _334
REMARK  144  A    between atoms: _339  and  _341
REMARK  145  A    between atoms: _341  and  _342
REMARK  146  A    between atoms: _344  and  _346
REMARK  147  A    between atoms: _346  and  _347
REMARK  148  A    between atoms: _346  and  _349
REMARK  149  A    between atoms: _349  and  _350
REMARK  150  A    between atoms: _353  and  _355
REMARK  151  A    between atoms: _355  and  _356
REMARK  152  A    between atoms: _355  and  _358
REMARK  153  A    between atoms: _358  and  _359
REMARK  154  A    between atoms: _361  and  _363
REMARK  155  A    between atoms: _363  and  _364
REMARK  156  A    between atoms: _366  and  _368
REMARK  157  A    between atoms: _368  and  _369
REMARK  158  A    between atoms: _371  and  _373
REMARK  159  A    between atoms: _373  and  _374
REMARK  160  A    between atoms: _373  and  _376
REMARK  161  A    between atoms: _376  and  _377
REMARK  162  A    between atoms: _382  and  _384
REMARK  163  A    between atoms: _384  and  _385
REMARK  164  A    between atoms: _384  and  _387
REMARK  165  A    between atoms: _387  and  _388
REMARK  166  A    between atoms: _391  and  _393
REMARK  167  A    between atoms: _393  and  _394
REMARK  168  A    between atoms: _393  and  _396
REMARK  169  A    between atoms: _399  and  _401
REMARK  170  A    between atoms: _401  and  _402
REMARK  171  A    between atoms: _401  and  _404
REMARK  172  A    between atoms: _404  and  _405
REMARK  173  A    between atoms: _407  and  _409
REMARK  174  A    between atoms: _409  and  _410
REMARK  175  A    between atoms: _409  and  _412
REMARK  176  A    between atoms: _412  and  _413
REMARK  177  A    between atoms: _423  and  _425
REMARK  178  A    between atoms: _425  and  _426
REMARK  179  A    between atoms: _428  and  _430
REMARK  180  A    between atoms: _430  and  _431
REMARK  181  A    between atoms: _430  and  _433
REMARK  182  A    between atoms: _433  and  _434
REMARK  183  A    between atoms: _434  and  _435
REMARK  184  A    between atoms: _438  and  _440
REMARK  185  A    between atoms: _440  and  _441
REMARK  186  A    between atoms: _443  and  _445
REMARK  187  A    between atoms: _445  and  _446
REMARK  188  A    between atoms: _445  and  _448
REMARK  189  A    between atoms: _448  and  _449
REMARK  190  A    between atoms: _450  and  _452
REMARK  191  A    between atoms: _452  and  _453
REMARK  192  A    between atoms: _456  and  _458
REMARK  193  A    between atoms: _458  and  _459
REMARK  194  A    between atoms: _458  and  _461
REMARK  195  A    between atoms: _461  and  _462
REMARK  196  A    between atoms: _462  and  _463
REMARK  197  A    between atoms: _463  and  _464
REMARK  198  A    between atoms: _473  and  _475
REMARK  199  A    between atoms: _475  and  _476
REMARK  200  A    between atoms: _475  and  _478
REMARK  201  A    between atoms: _478  and  _479
REMARK  202  A    between atoms: _484  and  _485
REMARK  203  A    between atoms: _487  and  _489
REMARK  204  A    between atoms: _489  and  _490
REMARK  205  A    between atoms: _492  and  _494
REMARK  206  A    between atoms: _494  and  _495
REMARK  207  A    between atoms: _494  and  _497
REMARK  208  A    between atoms: _497  and  _498
REMARK  209  A    between atoms: _501  and  _503
REMARK  210  A    between atoms: _503  and  _504
REMARK  211  A    between atoms: _503  and  _506
REMARK  212  A    between atoms: _506  and  _507
REMARK  213  A    between atoms: _512  and  _513
REMARK  214  A    between atoms: _515  and  _517
REMARK  215  A    between atoms: _517  and  _518
REMARK  216  A    between atoms: _517  and  _520
REMARK  217  A    between atoms: _520  and  _521
REMARK                            x       y       z     vdW  Elec       q    Type
REMARK                         _______ _______ _______ _____ _____    ______ ____
ROOT
ATOM      1  O   HOH     1       2.747   3.059  21.637  0.00  0.00    +0.000 OA
ENDROOT
TORSDOF 0
REMARK  Name = ../refined-set-2016/2boh/2boh_pocket.pdb
REMARK  217 active torsions:
REMARK  status: ('A' for Active; 'I' for Inactive)
REMARK    1  A    between atoms: _1  and  _5
REMARK    2  A    between atoms: _5  and  _6
REMARK    3  A    between atoms: _5  and  _8
REMARK    4  A    between atoms: _8  and  _9
REMARK    5  A    between atoms: _12  and  _14
REMARK    6  A    between atoms: _14  and  _15
REMARK    7  A    between atoms: _14  and  _17
REMARK    8  A    between atoms: _20  and  _22
REMARK    9  A    between atoms: _22  and  _23
REMARK   10  A    between atoms: _22  and  _25
REMARK   11  A    between atoms: _25  and  _26
REMARK   12  A    between atoms: _32  and  _34
REMARK   13  A    between atoms: _34  and  _35
REMARK   14  A    between atoms: _34  and  _37
REMARK   15  A    between atoms: _39  and  _41
REMARK   16  A    between atoms: _41  and  _42
REMARK   17  A    between atoms: _41  and  _44
REMARK   18  A    between atoms: _44  and  _45
REMARK   19  A    between atoms: _50  and  _52
REMARK   20  A    between atoms: _52  and  _53
REMARK   21  A    between atoms: _52  and  _55
REMARK   22  A    between atoms: _55  and  _56
REMARK   23  A    between atoms: _56  and  _57
REMARK   24  A    between atoms: _62  and  _64
REMARK   25  A    between atoms: _64  and  _65
REMARK   26  A    between atoms: _64  and  _67
REMARK   27  A    between atoms: _67  and  _68
REMARK   28  A    between atoms: _74  and  _76
REMARK   29  A    between atoms: _76  and  _77
REMARK   30  A    between atoms: _76  and  _79
REMARK   31  A    between atoms: _79  and  _80
REMARK   32  A    between atoms: _83  and  _85
REMARK   33  A    between atoms: _85  and  _86
REMARK   34  A    between atoms: _85  and  _88
REMARK   35  A    between atoms: _88  and  _89
REMARK   36  A    between atoms: _89  and  _90
REMARK   37  A    between atoms: _90  and  _91
REMARK   38  A    between atoms: _91  and  _92
REMARK   39  A    between atoms: _96  and  _98
REMARK   40  A    between atoms: _98  and  _99
REMARK   41  A    between atoms: _98  and  _101
REMARK   42  A    between atoms: _101  and  _102
REMARK   43  A    between atoms: _102  and  _103
REMARK   44  A    between atoms: _106  and  _108
REMARK   45  A    between atoms: _108  and  _109
REMARK   46  A    between atoms: _108  and  _111
REMARK   47  A    between atoms: _111  and  _112
REMARK   48  A    between atoms: _115  and  _117
REMARK   49  A    between atoms: _117  and  _118
REMARK   50  A    between atoms: _117  and  _120
REMARK   51  A    between atoms: _120  and  _121
REMARK   52  A    between atoms: _126  and  _127
REMARK   53  A    between atoms: _129  and  _131
REMARK   54  A    between atoms: _131  and  _132
REMARK   55  A    between atoms: _131  and  _134
REMARK   56  A    between atoms: _134  and  _135
REMARK   57  A    between atoms: _138  and  _140
REMARK   58  A    between atoms: _140  and  _141
REMARK   59  A    between atoms: _140  and  _143
REMARK   60  A    between atoms: _143  and  _144
REMARK   61  A    between atoms: _147  and  _149
REMARK   62  A    between atoms: _149  and  _150
REMARK   63  A    between atoms: _149  and  _152
REMARK   64  A    between atoms: _155  and  _157
REMARK   65  A    between atoms: _157  and  _158
REMARK   66  A    between atoms: _157  and  _160
REMARK   67  A    between atoms: _160  and  _161
REMARK   68  A    between atoms: _161  and  _162
REMARK   69  A    between atoms: _162  and  _163
REMARK   70  A    between atoms: _172  and  _174
REMARK   71  A    between atoms: _174  and  _175
REMARK   72  A    between atoms: _174  and  _177
REMARK   73  A    between atoms: _177  and  _178
REMARK   74  A    between atoms: _183  and  _185
REMARK   75  A    between atoms: _185  and  _186
REMARK   76  A    between atoms: _185  and  _188
REMARK   77  A    between atoms: _188  and  _189
REMARK   78  A    between atoms: _189  and  _190
REMARK   79  A    between atoms: _193  and  _195
REMARK   80  A    between atoms: _195  and  _196
REMARK   81  A    between atoms: _195  and  _198
REMARK   82  A    between atoms: _198  and  _199
REMARK   83  A    between atoms: _199  and  _200
REMARK   84  A    between atoms: _200  and  _201
REMARK   85  A    between atoms: _201  and  _202
REMARK   86  A    between atoms: _206  and  _208
REMARK   87  A    between atoms: _208  and  _209
REMARK   88  A    between atoms: _211  and  _213
REMARK   89  A    between atoms: _213  and  _214
REMARK   90  A    between atoms: _213  and  _216
REMARK   91  A    between atoms: _219  and  _221
REMARK   92  A    between atoms: _221  and  _222
REMARK   93  A    between atoms: _221  and  _224
REMARK   94  A    between atoms: _224  and  _225
REMARK   95  A    between atoms: _227  and  _229
REMARK   96  A    between atoms: _229  and  _230
REMARK   97  A    between atoms: _229  and  _232
REMARK   98  A    between atoms: _232  and  _233
REMARK   99  A    between atoms: _235  and  _237
REMARK  100  A    between atoms: _237  and  _238
REMARK  101  A    between atoms: _237  and  _240
REMARK  102  A    between atoms: _240  and  _241
REMARK  103  A    between atoms: _247  and  _249
REMARK  104  A    between atoms: _249  and  _250
REMARK  105  A    between atoms: _249  and  _252
REMARK  106  A    between atoms: _252  and  _253
REMARK  107  A    between atoms: _256  and  _258
REMARK  108  A    between atoms: _258  and  _259
REMARK  109  A    between atoms: _258  and  _261
REMARK  110  A    between atoms: _261  and  _262
REMARK  111  A    between atoms: _262  and  _263
REMARK  112  A    between atoms: _265  and  _267
REMARK  113  A    between atoms: _267  and  _268
REMARK  114  A    between atoms: _267  and  _270
REMARK  115  A    between atoms: _270  and  _271
REMARK  116  A    between atoms: _277  and  _279
REMARK  117  A    between atoms: _279  and  _280
REMARK  118  A    between atoms: _279  and  _282
REMARK  119  A    between atoms: _284  and  _286
REMARK  120  A    between atoms: _286  and  _287
REMARK  121  A    between atoms: _290  and  _292
REMARK  122  A    between atoms: _292  and  _293
REMARK  123  A    between atoms: _295  and  _297
REMARK  124  A    between atoms: _297  and  _298
REMARK  125  A    between atoms: _297  and  _300
REMARK  126  A    between atoms: _300  and  _301
REMARK  127  A    between atoms: _301  and  _302
REMARK  128  A    between atoms: _305  and  _307
REMARK  129  A    between atoms: _307  and  _308
REMARK  130  A    between atoms: _307  and  _310
REMARK  131  A    between atoms: _310  and  _311
REMARK  132  A    between atoms: _314  and  _316
REMARK  133  A    between atoms: _316  and  _317
REMARK  134  A    between atoms: _320  and  _322
REMARK  135  A    between atoms: _322  and  _323
REMARK  136  A    between atoms: _322  and  _325
REMARK  137  A    between atoms: _325  and  _326
REMARK  138  A    between atoms: _326  and  _449
REMARK  139  A    between atoms: _327  and  _329
REMARK  140  A    between atoms: _329  and  _330
REMARK  141  A    between atoms: _329  and  _332
REMARK  142  A    between atoms: _332  and  _333
REMARK  143  A    between atoms: _333  and  _334
REMARK  144  A    between atoms: _339  and  _341
REMARK  145  A    between atoms: _341  and  _342
REMARK  146  A    between atoms: _344  and  _346
REMARK  147  A    between atoms: _346  and  _347
REMARK  148  A    between atoms: _346  and  _349
REMARK  149  A    between atoms: _349  and  _350
REMARK  150  A    between atoms: _353  and  _355
REMARK  151  A    between atoms: _355  and  _356
REMARK  152  A    between atoms: _355  and  _358
REMARK  153  A    between atoms: _358  and  _359
REMARK  154  A    between atoms: _361  and  _363
REMARK  155  A    between atoms: _363  and  _364
REMARK  156  A    between atoms: _366  and  _368
REMARK  157  A    between atoms: _368  and  _369
REMARK  158  A    between atoms: _371  and  _373
REMARK  159  A    between atoms: _373  and  _374
REMARK  160  A    between atoms: _373  and  _376
REMARK  161  A    between atoms: _376  and  _377
REMARK  162  A    between atoms: _382  and  _384
REMARK  163  A    between atoms: _384  and  _385
REMARK  164  A    between atoms: _384  and  _387
REMARK  165  A    between atoms: _387  and  _388
REMARK  166  A    between atoms: _391  and  _393
REMARK  167  A    between atoms: _393  and  _394
REMARK  168  A    between atoms: _393  and  _396
REMARK  169  A    between atoms: _399  and  _401
REMARK  170  A    between atoms: _401  and  _402
REMARK  171  A    between atoms: _401  and  _404
REMARK  172  A    between atoms: _404  and  _405
REMARK  173  A    between atoms: _407  and  _409
REMARK  174  A    between atoms: _409  and  _410
REMARK  175  A    between atoms: _409  and  _412
REMARK  176  A    between atoms: _412  and  _413
REMARK  177  A    between atoms: _423  and  _425
REMARK  178  A    between atoms: _425  and  _426
REMARK  179  A    between atoms: _428  and  _430
REMARK  180  A    between atoms: _430  and  _431
REMARK  181  A    between atoms: _430  and  _433
REMARK  182  A    between atoms: _433  and  _434
REMARK  183  A    between atoms: _434  and  _435
REMARK  184  A    between atoms: _438  and  _440
REMARK  185  A    between atoms: _440  and  _441
REMARK  186  A    between atoms: _443  and  _445
REMARK  187  A    between atoms: _445  and  _446
REMARK  188  A    between atoms: _445  and  _448
REMARK  189  A    between atoms: _448  and  _449
REMARK  190  A    between atoms: _450  and  _452
REMARK  191  A    between atoms: _452  and  _453
REMARK  192  A    between atoms: _456  and  _458
REMARK  193  A    between atoms: _458  and  _459
REMARK  194  A    between atoms: _458  and  _461
REMARK  195  A    between atoms: _461  and  _462
REMARK  196  A    between atoms: _462  and  _463
REMARK  197  A    between atoms: _463  and  _464
REMARK  198  A    between atoms: _473  and  _475
REMARK  199  A    between atoms: _475  and  _476
REMARK  200  A    between atoms: _475  and  _478
REMARK  201  A    between atoms: _478  and  _479
REMARK  202  A    between atoms: _484  and  _485
REMARK  203  A    between atoms: _487  and  _489
REMARK  204  A    between atoms: _489  and  _490
REMARK  205  A    between atoms: _492  and  _494
REMARK  206  A    between atoms: _494  and  _495
REMARK  207  A    between atoms: _494  and  _497
REMARK  208  A    between atoms: _497  and  _498
REMARK  209  A    between atoms: _501  and  _503
REMARK  210  A    between atoms: _503  and  _504
REMARK  211  A    between atoms: _503  and  _506
REMARK  212  A    between atoms: _506  and  _507
REMARK  213  A    between atoms: _512  and  _513
REMARK  214  A    between atoms: _515  and  _517
REMARK  215  A    between atoms: _517  and  _518
REMARK  216  A    between atoms: _517  and  _520
REMARK  217  A    between atoms: _520  and  _521
REMARK                            x       y       z     vdW  Elec       q    Type
REMARK                         _______ _______ _______ _____ _____    ______ ____
ROOT
ATOM      1  O   HOH     1       8.965  12.466  19.702  0.00  0.00    +0.000 OA
ENDROOT
TORSDOF 0
REMARK  Name = ../refined-set-2016/2boh/2boh_pocket.pdb
REMARK  217 active torsions:
REMARK  status: ('A' for Active; 'I' for Inactive)
REMARK    1  A    between atoms: _1  and  _5
REMARK    2  A    between atoms: _5  and  _6
REMARK    3  A    between atoms: _5  and  _8
REMARK    4  A    between atoms: _8  and  _9
REMARK    5  A    between atoms: _12  and  _14
REMARK    6  A    between atoms: _14  and  _15
REMARK    7  A    between atoms: _14  and  _17
REMARK    8  A    between atoms: _20  and  _22
REMARK    9  A    between atoms: _22  and  _23
REMARK   10  A    between atoms: _22  and  _25
REMARK   11  A    between atoms: _25  and  _26
REMARK   12  A    between atoms: _32  and  _34
REMARK   13  A    between atoms: _34  and  _35
REMARK   14  A    between atoms: _34  and  _37
REMARK   15  A    between atoms: _39  and  _41
REMARK   16  A    between atoms: _41  and  _42
REMARK   17  A    between atoms: _41  and  _44
REMARK   18  A    between atoms: _44  and  _45
REMARK   19  A    between atoms: _50  and  _52
REMARK   20  A    between atoms: _52  and  _53
REMARK   21  A    between atoms: _52  and  _55
REMARK   22  A    between atoms: _55  and  _56
REMARK   23  A    between atoms: _56  and  _57
REMARK   24  A    between atoms: _62  and  _64
REMARK   25  A    between atoms: _64  and  _65
REMARK   26  A    between atoms: _64  and  _67
REMARK   27  A    between atoms: _67  and  _68
REMARK   28  A    between atoms: _74  and  _76
REMARK   29  A    between atoms: _76  and  _77
REMARK   30  A    between atoms: _76  and  _79
REMARK   31  A    between atoms: _79  and  _80
REMARK   32  A    between atoms: _83  and  _85
REMARK   33  A    between atoms: _85  and  _86
REMARK   34  A    between atoms: _85  and  _88
REMARK   35  A    between atoms: _88  and  _89
REMARK   36  A    between atoms: _89  and  _90
REMARK   37  A    between atoms: _90  and  _91
REMARK   38  A    between atoms: _91  and  _92
REMARK   39  A    between atoms: _96  and  _98
REMARK   40  A    between atoms: _98  and  _99
REMARK   41  A    between atoms: _98  and  _101
REMARK   42  A    between atoms: _101  and  _102
REMARK   43  A    between atoms: _102  and  _103
REMARK   44  A    between atoms: _106  and  _108
REMARK   45  A    between atoms: _108  and  _109
REMARK   46  A    between atoms: _108  and  _111
REMARK   47  A    between atoms: _111  and  _112
REMARK   48  A    between atoms: _115  and  _117
REMARK   49  A    between atoms: _117  and  _118
REMARK   50  A    between atoms: _117  and  _120
REMARK   51  A    between atoms: _120  and  _121
REMARK   52  A    between atoms: _126  and  _127
REMARK   53  A    between atoms: _129  and  _131
REMARK   54  A    between atoms: _131  and  _132
REMARK   55  A    between atoms: _131  and  _134
REMARK   56  A    between atoms: _134  and  _135
REMARK   57  A    between atoms: _138  and  _140
REMARK   58  A    between atoms: _140  and  _141
REMARK   59  A    between atoms: _140  and  _143
REMARK   60  A    between atoms: _143  and  _144
REMARK   61  A    between atoms: _147  and  _149
REMARK   62  A    between atoms: _149  and  _150
REMARK   63  A    between atoms: _149  and  _152
REMARK   64  A    between atoms: _155  and  _157
REMARK   65  A    between atoms: _157  and  _158
REMARK   66  A    between atoms: _157  and  _160
REMARK   67  A    between atoms: _160  and  _161
REMARK   68  A    between atoms: _161  and  _162
REMARK   69  A    between atoms: _162  and  _163
REMARK   70  A    between atoms: _172  and  _174
REMARK   71  A    between atoms: _174  and  _175
REMARK   72  A    between atoms: _174  and  _177
REMARK   73  A    between atoms: _177  and  _178
REMARK   74  A    between atoms: _183  and  _185
REMARK   75  A    between atoms: _185  and  _186
REMARK   76  A    between atoms: _185  and  _188
REMARK   77  A    between atoms: _188  and  _189
REMARK   78  A    between atoms: _189  and  _190
REMARK   79  A    between atoms: _193  and  _195
REMARK   80  A    between atoms: _195  and  _196
REMARK   81  A    between atoms: _195  and  _198
REMARK   82  A    between atoms: _198  and  _199
REMARK   83  A    between atoms: _199  and  _200
REMARK   84  A    between atoms: _200  and  _201
REMARK   85  A    between atoms: _201  and  _202
REMARK   86  A    between atoms: _206  and  _208
REMARK   87  A    between atoms: _208  and  _209
REMARK   88  A    between atoms: _211  and  _213
REMARK   89  A    between atoms: _213  and  _214
REMARK   90  A    between atoms: _213  and  _216
REMARK   91  A    between atoms: _219  and  _221
REMARK   92  A    between atoms: _221  and  _222
REMARK   93  A    between atoms: _221  and  _224
REMARK   94  A    between atoms: _224  and  _225
REMARK   95  A    between atoms: _227  and  _229
REMARK   96  A    between atoms: _229  and  _230
REMARK   97  A    between atoms: _229  and  _232
REMARK   98  A    between atoms: _232  and  _233
REMARK   99  A    between atoms: _235  and  _237
REMARK  100  A    between atoms: _237  and  _238
REMARK  101  A    between atoms: _237  and  _240
REMARK  102  A    between atoms: _240  and  _241
REMARK  103  A    between atoms: _247  and  _249
REMARK  104  A    between atoms: _249  and  _250
REMARK  105  A    between atoms: _249  and  _252
REMARK  106  A    between atoms: _252  and  _253
REMARK  107  A    between atoms: _256  and  _258
REMARK  108  A    between atoms: _258  and  _259
REMARK  109  A    between atoms: _258  and  _261
REMARK  110  A    between atoms: _261  and  _262
REMARK  111  A    between atoms: _262  and  _263
REMARK  112  A    between atoms: _265  and  _267
REMARK  113  A    between atoms: _267  and  _268
REMARK  114  A    between atoms: _267  and  _270
REMARK  115  A    between atoms: _270  and  _271
REMARK  116  A    between atoms: _277  and  _279
REMARK  117  A    between atoms: _279  and  _280
REMARK  118  A    between atoms: _279  and  _282
REMARK  119  A    between atoms: _284  and  _286
REMARK  120  A    between atoms: _286  and  _287
REMARK  121  A    between atoms: _290  and  _292
REMARK  122  A    between atoms: _292  and  _293
REMARK  123  A    between atoms: _295  and  _297
REMARK  124  A    between atoms: _297  and  _298
REMARK  125  A    between atoms: _297  and  _300
REMARK  126  A    between atoms: _300  and  _301
REMARK  127  A    between atoms: _301  and  _302
REMARK  128  A    between atoms: _305  and  _307
REMARK  129  A    between atoms: _307  and  _308
REMARK  130  A    between atoms: _307  and  _310
REMARK  131  A    between atoms: _310  and  _311
REMARK  132  A    between atoms: _314  and  _316
REMARK  133  A    between atoms: _316  and  _317
REMARK  134  A    between atoms: _320  and  _322
REMARK  135  A    between atoms: _322  and  _323
REMARK  136  A    between atoms: _322  and  _325
REMARK  137  A    between atoms: _325  and  _326
REMARK  138  A    between atoms: _326  and  _449
REMARK  139  A    between atoms: _327  and  _329
REMARK  140  A    between atoms: _329  and  _330
REMARK  141  A    between atoms: _329  and  _332
REMARK  142  A    between atoms: _332  and  _333
REMARK  143  A    between atoms: _333  and  _334
REMARK  144  A    between atoms: _339  and  _341
REMARK  145  A    between atoms: _341  and  _342
REMARK  146  A    between atoms: _344  and  _346
REMARK  147  A    between atoms: _346  and  _347
REMARK  148  A    between atoms: _346  and  _349
REMARK  149  A    between atoms: _349  and  _350
REMARK  150  A    between atoms: _353  and  _355
REMARK  151  A    between atoms: _355  and  _356
REMARK  152  A    between atoms: _355  and  _358
REMARK  153  A    between atoms: _358  and  _359
REMARK  154  A    between atoms: _361  and  _363
REMARK  155  A    between atoms: _363  and  _364
REMARK  156  A    between atoms: _366  and  _368
REMARK  157  A    between atoms: _368  and  _369
REMARK  158  A    between atoms: _371  and  _373
REMARK  159  A    between atoms: _373  and  _374
REMARK  160  A    between atoms: _373  and  _376
REMARK  161  A    between atoms: _376  and  _377
REMARK  162  A    between atoms: _382  and  _384
REMARK  163  A    between atoms: _384  and  _385
REMARK  164  A    between atoms: _384  and  _387
REMARK  165  A    between atoms: _387  and  _388
REMARK  166  A    between atoms: _391  and  _393
REMARK  167  A    between atoms: _393  and  _394
REMARK  168  A    between atoms: _393  and  _396
REMARK  169  A    between atoms: _399  and  _401
REMARK  170  A    between atoms: _401  and  _402
REMARK  171  A    between atoms: _401  and  _404
REMARK  172  A    between atoms: _404  and  _405
REMARK  173  A    between atoms: _407  and  _409
REMARK  174  A    between atoms: _409  and  _410
REMARK  175  A    between atoms: _409  and  _412
REMARK  176  A    between atoms: _412  and  _413
REMARK  177  A    between atoms: _423  and  _425
REMARK  178  A    between atoms: _425  and  _426
REMARK  179  A    between atoms: _428  and  _430
REMARK  180  A    between atoms: _430  and  _431
REMARK  181  A    between atoms: _430  and  _433
REMARK  182  A    between atoms: _433  and  _434
REMARK  183  A    between atoms: _434  and  _435
REMARK  184  A    between atoms: _438  and  _440
REMARK  185  A    between atoms: _440  and  _441
REMARK  186  A    between atoms: _443  and  _445
REMARK  187  A    between atoms: _445  and  _446
REMARK  188  A    between atoms: _445  and  _448
REMARK  189  A    between atoms: _448  and  _449
REMARK  190  A    between atoms: _450  and  _452
REMARK  191  A    between atoms: _452  and  _453
REMARK  192  A    between atoms: _456  and  _458
REMARK  193  A    between atoms: _458  and  _459
REMARK  194  A    between atoms: _458  and  _461
REMARK  195  A    between atoms: _461  and  _462
REMARK  196  A    between atoms: _462  and  _463
REMARK  197  A    between atoms: _463  and  _464
REMARK  198  A    between atoms: _473  and  _475
REMARK  199  A    between atoms: _475  and  _476
REMARK  200  A    between atoms: _475  and  _478
REMARK  201  A    between atoms: _478  and  _479
REMARK  202  A    between atoms: _484  and  _485
REMARK  203  A    between atoms: _487  and  _489
REMARK  204  A    between atoms: _489  and  _490
REMARK  205  A    between atoms: _492  and  _494
REMARK  206  A    between atoms: _494  and  _495
REMARK  207  A    between atoms: _494  and  _497
REMARK  208  A    between atoms: _497  and  _498
REMARK  209  A    between atoms: _501  and  _503
REMARK  210  A    between atoms: _503  and  _504
REMARK  211  A    between atoms: _503  and  _506
REMARK  212  A    between atoms: _506  and  _507
REMARK  213  A    between atoms: _512  and  _513
REMARK  214  A    between atoms: _515  and  _517
REMARK  215  A    between atoms: _517  and  _518
REMARK  216  A    between atoms: _517  and  _520
REMARK  217  A    between atoms: _520  and  _521
REMARK                            x       y       z     vdW  Elec       q    Type
REMARK                         _______ _______ _______ _____ _____    ______ ____
ROOT
ATOM      1  O   HOH     1      -1.513  11.646  25.127  0.00  0.00    +0.000 OA
ENDROOT
TORSDOF 0
REMARK  Name = ../refined-set-2016/2boh/2boh_pocket.pdb
REMARK  217 active torsions:
REMARK  status: ('A' for Active; 'I' for Inactive)
REMARK    1  A    between atoms: _1  and  _5
REMARK    2  A    between atoms: _5  and  _6
REMARK    3  A    between atoms: _5  and  _8
REMARK    4  A    between atoms: _8  and  _9
REMARK    5  A    between atoms: _12  and  _14
REMARK    6  A    between atoms: _14  and  _15
REMARK    7  A    between atoms: _14  and  _17
REMARK    8  A    between atoms: _20  and  _22
REMARK    9  A    between atoms: _22  and  _23
REMARK   10  A    between atoms: _22  and  _25
REMARK   11  A    between atoms: _25  and  _26
REMARK   12  A    between atoms: _32  and  _34
REMARK   13  A    between atoms: _34  and  _35
REMARK   14  A    between atoms: _34  and  _37
REMARK   15  A    between atoms: _39  and  _41
REMARK   16  A    between atoms: _41  and  _42
REMARK   17  A    between atoms: _41  and  _44
REMARK   18  A    between atoms: _44  and  _45
REMARK   19  A    between atoms: _50  and  _52
REMARK   20  A    between atoms: _52  and  _53
REMARK   21  A    between atoms: _52  and  _55
REMARK   22  A    between atoms: _55  and  _56
REMARK   23  A    between atoms: _56  and  _57
REMARK   24  A    between atoms: _62  and  _64
REMARK   25  A    between atoms: _64  and  _65
REMARK   26  A    between atoms: _64  and  _67
REMARK   27  A    between atoms: _67  and  _68
REMARK   28  A    between atoms: _74  and  _76
REMARK   29  A    between atoms: _76  and  _77
REMARK   30  A    between atoms: _76  and  _79
REMARK   31  A    between atoms: _79  and  _80
REMARK   32  A    between atoms: _83  and  _85
REMARK   33  A    between atoms: _85  and  _86
REMARK   34  A    between atoms: _85  and  _88
REMARK   35  A    between atoms: _88  and  _89
REMARK   36  A    between atoms: _89  and  _90
REMARK   37  A    between atoms: _90  and  _91
REMARK   38  A    between atoms: _91  and  _92
REMARK   39  A    between atoms: _96  and  _98
REMARK   40  A    between atoms: _98  and  _99
REMARK   41  A    between atoms: _98  and  _101
REMARK   42  A    between atoms: _101  and  _102
REMARK   43  A    between atoms: _102  and  _103
REMARK   44  A    between atoms: _106  and  _108
REMARK   45  A    between atoms: _108  and  _109
REMARK   46  A    between atoms: _108  and  _111
REMARK   47  A    between atoms: _111  and  _112
REMARK   48  A    between atoms: _115  and  _117
REMARK   49  A    between atoms: _117  and  _118
REMARK   50  A    between atoms: _117  and  _120
REMARK   51  A    between atoms: _120  and  _121
REMARK   52  A    between atoms: _126  and  _127
REMARK   53  A    between atoms: _129  and  _131
REMARK   54  A    between atoms: _131  and  _132
REMARK   55  A    between atoms: _131  and  _134
REMARK   56  A    between atoms: _134  and  _135
REMARK   57  A    between atoms: _138  and  _140
REMARK   58  A    between atoms: _140  and  _141
REMARK   59  A    between atoms: _140  and  _143
REMARK   60  A    between atoms: _143  and  _144
REMARK   61  A    between atoms: _147  and  _149
REMARK   62  A    between atoms: _149  and  _150
REMARK   63  A    between atoms: _149  and  _152
REMARK   64  A    between atoms: _155  and  _157
REMARK   65  A    between atoms: _157  and  _158
REMARK   66  A    between atoms: _157  and  _160
REMARK   67  A    between atoms: _160  and  _161
REMARK   68  A    between atoms: _161  and  _162
REMARK   69  A    between atoms: _162  and  _163
REMARK   70  A    between atoms: _172  and  _174
REMARK   71  A    between atoms: _174  and  _175
REMARK   72  A    between atoms: _174  and  _177
REMARK   73  A    between atoms: _177  and  _178
REMARK   74  A    between atoms: _183  and  _185
REMARK   75  A    between atoms: _185  and  _186
REMARK   76  A    between atoms: _185  and  _188
REMARK   77  A    between atoms: _188  and  _189
REMARK   78  A    between atoms: _189  and  _190
REMARK   79  A    between atoms: _193  and  _195
REMARK   80  A    between atoms: _195  and  _196
REMARK   81  A    between atoms: _195  and  _198
REMARK   82  A    between atoms: _198  and  _199
REMARK   83  A    between atoms: _199  and  _200
REMARK   84  A    between atoms: _200  and  _201
REMARK   85  A    between atoms: _201  and  _202
REMARK   86  A    between atoms: _206  and  _208
REMARK   87  A    between atoms: _208  and  _209
REMARK   88  A    between atoms: _211  and  _213
REMARK   89  A    between atoms: _213  and  _214
REMARK   90  A    between atoms: _213  and  _216
REMARK   91  A    between atoms: _219  and  _221
REMARK   92  A    between atoms: _221  and  _222
REMARK   93  A    between atoms: _221  and  _224
REMARK   94  A    between atoms: _224  and  _225
REMARK   95  A    between atoms: _227  and  _229
REMARK   96  A    between atoms: _229  and  _230
REMARK   97  A    between atoms: _229  and  _232
REMARK   98  A    between atoms: _232  and  _233
REMARK   99  A    between atoms: _235  and  _237
REMARK  100  A    between atoms: _237  and  _238
REMARK  101  A    between atoms: _237  and  _240
REMARK  102  A    between atoms: _240  and  _241
REMARK  103  A    between atoms: _247  and  _249
REMARK  104  A    between atoms: _249  and  _250
REMARK  105  A    between atoms: _249  and  _252
REMARK  106  A    between atoms: _252  and  _253
REMARK  107  A    between atoms: _256  and  _258
REMARK  108  A    between atoms: _258  and  _259
REMARK  109  A    between atoms: _258  and  _261
REMARK  110  A    between atoms: _261  and  _262
REMARK  111  A    between atoms: _262  and  _263
REMARK  112  A    between atoms: _265  and  _267
REMARK  113  A    between atoms: _267  and  _268
REMARK  114  A    between atoms: _267  and  _270
REMARK  115  A    between atoms: _270  and  _271
REMARK  116  A    between atoms: _277  and  _279
REMARK  117  A    between atoms: _279  and  _280
REMARK  118  A    between atoms: _279  and  _282
REMARK  119  A    between atoms: _284  and  _286
REMARK  120  A    between atoms: _286  and  _287
REMARK  121  A    between atoms: _290  and  _292
REMARK  122  A    between atoms: _292  and  _293
REMARK  123  A    between atoms: _295  and  _297
REMARK  124  A    between atoms: _297  and  _298
REMARK  125  A    between atoms: _297  and  _300
REMARK  126  A    between atoms: _300  and  _301
REMARK  127  A    between atoms: _301  and  _302
REMARK  128  A    between atoms: _305  and  _307
REMARK  129  A    between atoms: _307  and  _308
REMARK  130  A    between atoms: _307  and  _310
REMARK  131  A    between atoms: _310  and  _311
REMARK  132  A    between atoms: _314  and  _316
REMARK  133  A    between atoms: _316  and  _317
REMARK  134  A    between atoms: _320  and  _322
REMARK  135  A    between atoms: _322  and  _323
REMARK  136  A    between atoms: _322  and  _325
REMARK  137  A    between atoms: _325  and  _326
REMARK  138  A    between atoms: _326  and  _449
REMARK  139  A    between atoms: _327  and  _329
REMARK  140  A    between atoms: _329  and  _330
REMARK  141  A    between atoms: _329  and  _332
REMARK  142  A    between atoms: _332  and  _333
REMARK  143  A    between atoms: _333  and  _334
REMARK  144  A    between atoms: _339  and  _341
REMARK  145  A    between atoms: _341  and  _342
REMARK  146  A    between atoms: _344  and  _346
REMARK  147  A    between atoms: _346  and  _347
REMARK  148  A    between atoms: _346  and  _349
REMARK  149  A    between atoms: _349  and  _350
REMARK  150  A    between atoms: _353  and  _355
REMARK  151  A    between atoms: _355  and  _356
REMARK  152  A    between atoms: _355  and  _358
REMARK  153  A    between atoms: _358  and  _359
REMARK  154  A    between atoms: _361  and  _363
REMARK  155  A    between atoms: _363  and  _364
REMARK  156  A    between atoms: _366  and  _368
REMARK  157  A    between atoms: _368  and  _369
REMARK  158  A    between atoms: _371  and  _373
REMARK  159  A    between atoms: _373  and  _374
REMARK  160  A    between atoms: _373  and  _376
REMARK  161  A    between atoms: _376  and  _377
REMARK  162  A    between atoms: _382  and  _384
REMARK  163  A    between atoms: _384  and  _385
REMARK  164  A    between atoms: _384  and  _387
REMARK  165  A    between atoms: _387  and  _388
REMARK  166  A    between atoms: _391  and  _393
REMARK  167  A    between atoms: _393  and  _394
REMARK  168  A    between atoms: _393  and  _396
REMARK  169  A    between atoms: _399  and  _401
REMARK  170  A    between atoms: _401  and  _402
REMARK  171  A    between atoms: _401  and  _404
REMARK  172  A    between atoms: _404  and  _405
REMARK  173  A    between atoms: _407  and  _409
REMARK  174  A    between atoms: _409  and  _410
REMARK  175  A    between atoms: _409  and  _412
REMARK  176  A    between atoms: _412  and  _413
REMARK  177  A    between atoms: _423  and  _425
REMARK  178  A    between atoms: _425  and  _426
REMARK  179  A    between atoms: _428  and  _430
REMARK  180  A    between atoms: _430  and  _431
REMARK  181  A    between atoms: _430  and  _433
REMARK  182  A    between atoms: _433  and  _434
REMARK  183  A    between atoms: _434  and  _435
REMARK  184  A    between atoms: _438  and  _440
REMARK  185  A    between atoms: _440  and  _441
REMARK  186  A    between atoms: _443  and  _445
REMARK  187  A    between atoms: _445  and  _446
REMARK  188  A    between atoms: _445  and  _448
REMARK  189  A    between atoms: _448  and  _449
REMARK  190  A    between atoms: _450  and  _452
REMARK  191  A    between atoms: _452  and  _453
REMARK  192  A    between atoms: _456  and  _458
REMARK  193  A    between atoms: _458  and  _459
REMARK  194  A    between atoms: _458  and  _461
REMARK  195  A    between atoms: _461  and  _462
REMARK  196  A    between atoms: _462  and  _463
REMARK  197  A    between atoms: _463  and  _464
REMARK  198  A    between atoms: _473  and  _475
REMARK  199  A    between atoms: _475  and  _476
REMARK  200  A    between atoms: _475  and  _478
REMARK  201  A    between atoms: _478  and  _479
REMARK  202  A    between atoms: _484  and  _485
REMARK  203  A    between atoms: _487  and  _489
REMARK  204  A    between atoms: _489  and  _490
REMARK  205  A    between atoms: _492  and  _494
REMARK  206  A    between atoms: _494  and  _495
REMARK  207  A    between atoms: _494  and  _497
REMARK  208  A    between atoms: _497  and  _498
REMARK  209  A    between atoms: _501  and  _503
REMARK  210  A    between atoms: _503  and  _504
REMARK  211  A    between atoms: _503  and  _506
REMARK  212  A    between atoms: _506  and  _507
REMARK  213  A    between atoms: _512  and  _513
REMARK  214  A    between atoms: _515  and  _517
REMARK  215  A    between atoms: _517  and  _518
REMARK  216  A    between atoms: _517  and  _520
REMARK  217  A    between atoms: _520  and  _521
REMARK                            x       y       z     vdW  Elec       q    Type
REMARK                         _______ _______ _______ _____ _____    ______ ____
ROOT
ATOM      1  O   HOH     1       3.485   8.720  33.835  0.00  0.00    +0.000 OA
ENDROOT
TORSDOF 0
REMARK  Name = ../refined-set-2016/2boh/2boh_pocket.pdb
REMARK  217 active torsions:
REMARK  status: ('A' for Active; 'I' for Inactive)
REMARK    1  A    between atoms: _1  and  _5
REMARK    2  A    between atoms: _5  and  _6
REMARK    3  A    between atoms: _5  and  _8
REMARK    4  A    between atoms: _8  and  _9
REMARK    5  A    between atoms: _12  and  _14
REMARK    6  A    between atoms: _14  and  _15
REMARK    7  A    between atoms: _14  and  _17
REMARK    8  A    between atoms: _20  and  _22
REMARK    9  A    between atoms: _22  and  _23
REMARK   10  A    between atoms: _22  and  _25
REMARK   11  A    between atoms: _25  and  _26
REMARK   12  A    between atoms: _32  and  _34
REMARK   13  A    between atoms: _34  and  _35
REMARK   14  A    between atoms: _34  and  _37
REMARK   15  A    between atoms: _39  and  _41
REMARK   16  A    between atoms: _41  and  _42
REMARK   17  A    between atoms: _41  and  _44
REMARK   18  A    between atoms: _44  and  _45
REMARK   19  A    between atoms: _50  and  _52
REMARK   20  A    between atoms: _52  and  _53
REMARK   21  A    between atoms: _52  and  _55
REMARK   22  A    between atoms: _55  and  _56
REMARK   23  A    between atoms: _56  and  _57
REMARK   24  A    between atoms: _62  and  _64
REMARK   25  A    between atoms: _64  and  _65
REMARK   26  A    between atoms: _64  and  _67
REMARK   27  A    between atoms: _67  and  _68
REMARK   28  A    between atoms: _74  and  _76
REMARK   29  A    between atoms: _76  and  _77
REMARK   30  A    between atoms: _76  and  _79
REMARK   31  A    between atoms: _79  and  _80
REMARK   32  A    between atoms: _83  and  _85
REMARK   33  A    between atoms: _85  and  _86
REMARK   34  A    between atoms: _85  and  _88
REMARK   35  A    between atoms: _88  and  _89
REMARK   36  A    between atoms: _89  and  _90
REMARK   37  A    between atoms: _90  and  _91
REMARK   38  A    between atoms: _91  and  _92
REMARK   39  A    between atoms: _96  and  _98
REMARK   40  A    between atoms: _98  and  _99
REMARK   41  A    between atoms: _98  and  _101
REMARK   42  A    between atoms: _101  and  _102
REMARK   43  A    between atoms: _102  and  _103
REMARK   44  A    between atoms: _106  and  _108
REMARK   45  A    between atoms: _108  and  _109
REMARK   46  A    between atoms: _108  and  _111
REMARK   47  A    between atoms: _111  and  _112
REMARK   48  A    between atoms: _115  and  _117
REMARK   49  A    between atoms: _117  and  _118
REMARK   50  A    between atoms: _117  and  _120
REMARK   51  A    between atoms: _120  and  _121
REMARK   52  A    between atoms: _126  and  _127
REMARK   53  A    between atoms: _129  and  _131
REMARK   54  A    between atoms: _131  and  _132
REMARK   55  A    between atoms: _131  and  _134
REMARK   56  A    between atoms: _134  and  _135
REMARK   57  A    between atoms: _138  and  _140
REMARK   58  A    between atoms: _140  and  _141
REMARK   59  A    between atoms: _140  and  _143
REMARK   60  A    between atoms: _143  and  _144
REMARK   61  A    between atoms: _147  and  _149
REMARK   62  A    between atoms: _149  and  _150
REMARK   63  A    between atoms: _149  and  _152
REMARK   64  A    between atoms: _155  and  _157
REMARK   65  A    between atoms: _157  and  _158
REMARK   66  A    between atoms: _157  and  _160
REMARK   67  A    between atoms: _160  and  _161
REMARK   68  A    between atoms: _161  and  _162
REMARK   69  A    between atoms: _162  and  _163
REMARK   70  A    between atoms: _172  and  _174
REMARK   71  A    between atoms: _174  and  _175
REMARK   72  A    between atoms: _174  and  _177
REMARK   73  A    between atoms: _177  and  _178
REMARK   74  A    between atoms: _183  and  _185
REMARK   75  A    between atoms: _185  and  _186
REMARK   76  A    between atoms: _185  and  _188
REMARK   77  A    between atoms: _188  and  _189
REMARK   78  A    between atoms: _189  and  _190
REMARK   79  A    between atoms: _193  and  _195
REMARK   80  A    between atoms: _195  and  _196
REMARK   81  A    between atoms: _195  and  _198
REMARK   82  A    between atoms: _198  and  _199
REMARK   83  A    between atoms: _199  and  _200
REMARK   84  A    between atoms: _200  and  _201
REMARK   85  A    between atoms: _201  and  _202
REMARK   86  A    between atoms: _206  and  _208
REMARK   87  A    between atoms: _208  and  _209
REMARK   88  A    between atoms: _211  and  _213
REMARK   89  A    between atoms: _213  and  _214
REMARK   90  A    between atoms: _213  and  _216
REMARK   91  A    between atoms: _219  and  _221
REMARK   92  A    between atoms: _221  and  _222
REMARK   93  A    between atoms: _221  and  _224
REMARK   94  A    between atoms: _224  and  _225
REMARK   95  A    between atoms: _227  and  _229
REMARK   96  A    between atoms: _229  and  _230
REMARK   97  A    between atoms: _229  and  _232
REMARK   98  A    between atoms: _232  and  _233
REMARK   99  A    between atoms: _235  and  _237
REMARK  100  A    between atoms: _237  and  _238
REMARK  101  A    between atoms: _237  and  _240
REMARK  102  A    between atoms: _240  and  _241
REMARK  103  A    between atoms: _247  and  _249
REMARK  104  A    between atoms: _249  and  _250
REMARK  105  A    between atoms: _249  and  _252
REMARK  106  A    between atoms: _252  and  _253
REMARK  107  A    between atoms: _256  and  _258
REMARK  108  A    between atoms: _258  and  _259
REMARK  109  A    between atoms: _258  and  _261
REMARK  110  A    between atoms: _261  and  _262
REMARK  111  A    between atoms: _262  and  _263
REMARK  112  A    between atoms: _265  and  _267
REMARK  113  A    between atoms: _267  and  _268
REMARK  114  A    between atoms: _267  and  _270
REMARK  115  A    between atoms: _270  and  _271
REMARK  116  A    between atoms: _277  and  _279
REMARK  117  A    between atoms: _279  and  _280
REMARK  118  A    between atoms: _279  and  _282
REMARK  119  A    between atoms: _284  and  _286
REMARK  120  A    between atoms: _286  and  _287
REMARK  121  A    between atoms: _290  and  _292
REMARK  122  A    between atoms: _292  and  _293
REMARK  123  A    between atoms: _295  and  _297
REMARK  124  A    between atoms: _297  and  _298
REMARK  125  A    between atoms: _297  and  _300
REMARK  126  A    between atoms: _300  and  _301
REMARK  127  A    between atoms: _301  and  _302
REMARK  128  A    between atoms: _305  and  _307
REMARK  129  A    between atoms: _307  and  _308
REMARK  130  A    between atoms: _307  and  _310
REMARK  131  A    between atoms: _310  and  _311
REMARK  132  A    between atoms: _314  and  _316
REMARK  133  A    between atoms: _316  and  _317
REMARK  134  A    between atoms: _320  and  _322
REMARK  135  A    between atoms: _322  and  _323
REMARK  136  A    between atoms: _322  and  _325
REMARK  137  A    between atoms: _325  and  _326
REMARK  138  A    between atoms: _326  and  _449
REMARK  139  A    between atoms: _327  and  _329
REMARK  140  A    between atoms: _329  and  _330
REMARK  141  A    between atoms: _329  and  _332
REMARK  142  A    between atoms: _332  and  _333
REMARK  143  A    between atoms: _333  and  _334
REMARK  144  A    between atoms: _339  and  _341
REMARK  145  A    between atoms: _341  and  _342
REMARK  146  A    between atoms: _344  and  _346
REMARK  147  A    between atoms: _346  and  _347
REMARK  148  A    between atoms: _346  and  _349
REMARK  149  A    between atoms: _349  and  _350
REMARK  150  A    between atoms: _353  and  _355
REMARK  151  A    between atoms: _355  and  _356
REMARK  152  A    between atoms: _355  and  _358
REMARK  153  A    between atoms: _358  and  _359
REMARK  154  A    between atoms: _361  and  _363
REMARK  155  A    between atoms: _363  and  _364
REMARK  156  A    between atoms: _366  and  _368
REMARK  157  A    between atoms: _368  and  _369
REMARK  158  A    between atoms: _371  and  _373
REMARK  159  A    between atoms: _373  and  _374
REMARK  160  A    between atoms: _373  and  _376
REMARK  161  A    between atoms: _376  and  _377
REMARK  162  A    between atoms: _382  and  _384
REMARK  163  A    between atoms: _384  and  _385
REMARK  164  A    between atoms: _384  and  _387
REMARK  165  A    between atoms: _387  and  _388
REMARK  166  A    between atoms: _391  and  _393
REMARK  167  A    between atoms: _393  and  _394
REMARK  168  A    between atoms: _393  and  _396
REMARK  169  A    between atoms: _399  and  _401
REMARK  170  A    between atoms: _401  and  _402
REMARK  171  A    between atoms: _401  and  _404
REMARK  172  A    between atoms: _404  and  _405
REMARK  173  A    between atoms: _407  and  _409
REMARK  174  A    between atoms: _409  and  _410
REMARK  175  A    between atoms: _409  and  _412
REMARK  176  A    between atoms: _412  and  _413
REMARK  177  A    between atoms: _423  and  _425
REMARK  178  A    between atoms: _425  and  _426
REMARK  179  A    between atoms: _428  and  _430
REMARK  180  A    between atoms: _430  and  _431
REMARK  181  A    between atoms: _430  and  _433
REMARK  182  A    between atoms: _433  and  _434
REMARK  183  A    between atoms: _434  and  _435
REMARK  184  A    between atoms: _438  and  _440
REMARK  185  A    between atoms: _440  and  _441
REMARK  186  A    between atoms: _443  and  _445
REMARK  187  A    between atoms: _445  and  _446
REMARK  188  A    between atoms: _445  and  _448
REMARK  189  A    between atoms: _448  and  _449
REMARK  190  A    between atoms: _450  and  _452
REMARK  191  A    between atoms: _452  and  _453
REMARK  192  A    between atoms: _456  and  _458
REMARK  193  A    between atoms: _458  and  _459
REMARK  194  A    between atoms: _458  and  _461
REMARK  195  A    between atoms: _461  and  _462
REMARK  196  A    between atoms: _462  and  _463
REMARK  197  A    between atoms: _463  and  _464
REMARK  198  A    between atoms: _473  and  _475
REMARK  199  A    between atoms: _475  and  _476
REMARK  200  A    between atoms: _475  and  _478
REMARK  201  A    between atoms: _478  and  _479
REMARK  202  A    between atoms: _484  and  _485
REMARK  203  A    between atoms: _487  and  _489
REMARK  204  A    between atoms: _489  and  _490
REMARK  205  A    between atoms: _492  and  _494
REMARK  206  A    between atoms: _494  and  _495
REMARK  207  A    between atoms: _494  and  _497
REMARK  208  A    between atoms: _497  and  _498
REMARK  209  A    between atoms: _501  and  _503
REMARK  210  A    between atoms: _503  and  _504
REMARK  211  A    between atoms: _503  and  _506
REMARK  212  A    between atoms: _506  and  _507
REMARK  213  A    between atoms: _512  and  _513
REMARK  214  A    between atoms: _515  and  _517
REMARK  215  A    between atoms: _517  and  _518
REMARK  216  A    between atoms: _517  and  _520
REMARK  217  A    between atoms: _520  and  _521
REMARK                            x       y       z     vdW  Elec       q    Type
REMARK                         _______ _______ _______ _____ _____    ______ ____
ROOT
ATOM      1  O   HOH     1      -1.004   7.386  27.071  0.00  0.00    +0.000 OA
ENDROOT
TORSDOF 0
REMARK  Name = ../refined-set-2016/2boh/2boh_pocket.pdb
REMARK  217 active torsions:
REMARK  status: ('A' for Active; 'I' for Inactive)
REMARK    1  A    between atoms: _1  and  _5
REMARK    2  A    between atoms: _5  and  _6
REMARK    3  A    between atoms: _5  and  _8
REMARK    4  A    between atoms: _8  and  _9
REMARK    5  A    between atoms: _12  and  _14
REMARK    6  A    between atoms: _14  and  _15
REMARK    7  A    between atoms: _14  and  _17
REMARK    8  A    between atoms: _20  and  _22
REMARK    9  A    between atoms: _22  and  _23
REMARK   10  A    between atoms: _22  and  _25
REMARK   11  A    between atoms: _25  and  _26
REMARK   12  A    between atoms: _32  and  _34
REMARK   13  A    between atoms: _34  and  _35
REMARK   14  A    between atoms: _34  and  _37
REMARK   15  A    between atoms: _39  and  _41
REMARK   16  A    between atoms: _41  and  _42
REMARK   17  A    between atoms: _41  and  _44
REMARK   18  A    between atoms: _44  and  _45
REMARK   19  A    between atoms: _50  and  _52
REMARK   20  A    between atoms: _52  and  _53
REMARK   21  A    between atoms: _52  and  _55
REMARK   22  A    between atoms: _55  and  _56
REMARK   23  A    between atoms: _56  and  _57
REMARK   24  A    between atoms: _62  and  _64
REMARK   25  A    between atoms: _64  and  _65
REMARK   26  A    between atoms: _64  and  _67
REMARK   27  A    between atoms: _67  and  _68
REMARK   28  A    between atoms: _74  and  _76
REMARK   29  A    between atoms: _76  and  _77
REMARK   30  A    between atoms: _76  and  _79
REMARK   31  A    between atoms: _79  and  _80
REMARK   32  A    between atoms: _83  and  _85
REMARK   33  A    between atoms: _85  and  _86
REMARK   34  A    between atoms: _85  and  _88
REMARK   35  A    between atoms: _88  and  _89
REMARK   36  A    between atoms: _89  and  _90
REMARK   37  A    between atoms: _90  and  _91
REMARK   38  A    between atoms: _91  and  _92
REMARK   39  A    between atoms: _96  and  _98
REMARK   40  A    between atoms: _98  and  _99
REMARK   41  A    between atoms: _98  and  _101
REMARK   42  A    between atoms: _101  and  _102
REMARK   43  A    between atoms: _102  and  _103
REMARK   44  A    between atoms: _106  and  _108
REMARK   45  A    between atoms: _108  and  _109
REMARK   46  A    between atoms: _108  and  _111
REMARK   47  A    between atoms: _111  and  _112
REMARK   48  A    between atoms: _115  and  _117
REMARK   49  A    between atoms: _117  and  _118
REMARK   50  A    between atoms: _117  and  _120
REMARK   51  A    between atoms: _120  and  _121
REMARK   52  A    between atoms: _126  and  _127
REMARK   53  A    between atoms: _129  and  _131
REMARK   54  A    between atoms: _131  and  _132
REMARK   55  A    between atoms: _131  and  _134
REMARK   56  A    between atoms: _134  and  _135
REMARK   57  A    between atoms: _138  and  _140
REMARK   58  A    between atoms: _140  and  _141
REMARK   59  A    between atoms: _140  and  _143
REMARK   60  A    between atoms: _143  and  _144
REMARK   61  A    between atoms: _147  and  _149
REMARK   62  A    between atoms: _149  and  _150
REMARK   63  A    between atoms: _149  and  _152
REMARK   64  A    between atoms: _155  and  _157
REMARK   65  A    between atoms: _157  and  _158
REMARK   66  A    between atoms: _157  and  _160
REMARK   67  A    between atoms: _160  and  _161
REMARK   68  A    between atoms: _161  and  _162
REMARK   69  A    between atoms: _162  and  _163
REMARK   70  A    between atoms: _172  and  _174
REMARK   71  A    between atoms: _174  and  _175
REMARK   72  A    between atoms: _174  and  _177
REMARK   73  A    between atoms: _177  and  _178
REMARK   74  A    between atoms: _183  and  _185
REMARK   75  A    between atoms: _185  and  _186
REMARK   76  A    between atoms: _185  and  _188
REMARK   77  A    between atoms: _188  and  _189
REMARK   78  A    between atoms: _189  and  _190
REMARK   79  A    between atoms: _193  and  _195
REMARK   80  A    between atoms: _195  and  _196
REMARK   81  A    between atoms: _195  and  _198
REMARK   82  A    between atoms: _198  and  _199
REMARK   83  A    between atoms: _199  and  _200
REMARK   84  A    between atoms: _200  and  _201
REMARK   85  A    between atoms: _201  and  _202
REMARK   86  A    between atoms: _206  and  _208
REMARK   87  A    between atoms: _208  and  _209
REMARK   88  A    between atoms: _211  and  _213
REMARK   89  A    between atoms: _213  and  _214
REMARK   90  A    between atoms: _213  and  _216
REMARK   91  A    between atoms: _219  and  _221
REMARK   92  A    between atoms: _221  and  _222
REMARK   93  A    between atoms: _221  and  _224
REMARK   94  A    between atoms: _224  and  _225
REMARK   95  A    between atoms: _227  and  _229
REMARK   96  A    between atoms: _229  and  _230
REMARK   97  A    between atoms: _229  and  _232
REMARK   98  A    between atoms: _232  and  _233
REMARK   99  A    between atoms: _235  and  _237
REMARK  100  A    between atoms: _237  and  _238
REMARK  101  A    between atoms: _237  and  _240
REMARK  102  A    between atoms: _240  and  _241
REMARK  103  A    between atoms: _247  and  _249
REMARK  104  A    between atoms: _249  and  _250
REMARK  105  A    between atoms: _249  and  _252
REMARK  106  A    between atoms: _252  and  _253
REMARK  107  A    between atoms: _256  and  _258
REMARK  108  A    between atoms: _258  and  _259
REMARK  109  A    between atoms: _258  and  _261
REMARK  110  A    between atoms: _261  and  _262
REMARK  111  A    between atoms: _262  and  _263
REMARK  112  A    between atoms: _265  and  _267
REMARK  113  A    between atoms: _267  and  _268
REMARK  114  A    between atoms: _267  and  _270
REMARK  115  A    between atoms: _270  and  _271
REMARK  116  A    between atoms: _277  and  _279
REMARK  117  A    between atoms: _279  and  _280
REMARK  118  A    between atoms: _279  and  _282
REMARK  119  A    between atoms: _284  and  _286
REMARK  120  A    between atoms: _286  and  _287
REMARK  121  A    between atoms: _290  and  _292
REMARK  122  A    between atoms: _292  and  _293
REMARK  123  A    between atoms: _295  and  _297
REMARK  124  A    between atoms: _297  and  _298
REMARK  125  A    between atoms: _297  and  _300
REMARK  126  A    between atoms: _300  and  _301
REMARK  127  A    between atoms: _301  and  _302
REMARK  128  A    between atoms: _305  and  _307
REMARK  129  A    between atoms: _307  and  _308
REMARK  130  A    between atoms: _307  and  _310
REMARK  131  A    between atoms: _310  and  _311
REMARK  132  A    between atoms: _314  and  _316
REMARK  133  A    between atoms: _316  and  _317
REMARK  134  A    between atoms: _320  and  _322
REMARK  135  A    between atoms: _322  and  _323
REMARK  136  A    between atoms: _322  and  _325
REMARK  137  A    between atoms: _325  and  _326
REMARK  138  A    between atoms: _326  and  _449
REMARK  139  A    between atoms: _327  and  _329
REMARK  140  A    between atoms: _329  and  _330
REMARK  141  A    between atoms: _329  and  _332
REMARK  142  A    between atoms: _332  and  _333
REMARK  143  A    between atoms: _333  and  _334
REMARK  144  A    between atoms: _339  and  _341
REMARK  145  A    between atoms: _341  and  _342
REMARK  146  A    between atoms: _344  and  _346
REMARK  147  A    between atoms: _346  and  _347
REMARK  148  A    between atoms: _346  and  _349
REMARK  149  A    between atoms: _349  and  _350
REMARK  150  A    between atoms: _353  and  _355
REMARK  151  A    between atoms: _355  and  _356
REMARK  152  A    between atoms: _355  and  _358
REMARK  153  A    between atoms: _358  and  _359
REMARK  154  A    between atoms: _361  and  _363
REMARK  155  A    between atoms: _363  and  _364
REMARK  156  A    between atoms: _366  and  _368
REMARK  157  A    between atoms: _368  and  _369
REMARK  158  A    between atoms: _371  and  _373
REMARK  159  A    between atoms: _373  and  _374
REMARK  160  A    between atoms: _373  and  _376
REMARK  161  A    between atoms: _376  and  _377
REMARK  162  A    between atoms: _382  and  _384
REMARK  163  A    between atoms: _384  and  _385
REMARK  164  A    between atoms: _384  and  _387
REMARK  165  A    between atoms: _387  and  _388
REMARK  166  A    between atoms: _391  and  _393
REMARK  167  A    between atoms: _393  and  _394
REMARK  168  A    between atoms: _393  and  _396
REMARK  169  A    between atoms: _399  and  _401
REMARK  170  A    between atoms: _401  and  _402
REMARK  171  A    between atoms: _401  and  _404
REMARK  172  A    between atoms: _404  and  _405
REMARK  173  A    between atoms: _407  and  _409
REMARK  174  A    between atoms: _409  and  _410
REMARK  175  A    between atoms: _409  and  _412
REMARK  176  A    between atoms: _412  and  _413
REMARK  177  A    between atoms: _423  and  _425
REMARK  178  A    between atoms: _425  and  _426
REMARK  179  A    between atoms: _428  and  _430
REMARK  180  A    between atoms: _430  and  _431
REMARK  181  A    between atoms: _430  and  _433
REMARK  182  A    between atoms: _433  and  _434
REMARK  183  A    between atoms: _434  and  _435
REMARK  184  A    between atoms: _438  and  _440
REMARK  185  A    between atoms: _440  and  _441
REMARK  186  A    between atoms: _443  and  _445
REMARK  187  A    between atoms: _445  and  _446
REMARK  188  A    between atoms: _445  and  _448
REMARK  189  A    between atoms: _448  and  _449
REMARK  190  A    between atoms: _450  and  _452
REMARK  191  A    between atoms: _452  and  _453
REMARK  192  A    between atoms: _456  and  _458
REMARK  193  A    between atoms: _458  and  _459
REMARK  194  A    between atoms: _458  and  _461
REMARK  195  A    between atoms: _461  and  _462
REMARK  196  A    between atoms: _462  and  _463
REMARK  197  A    between atoms: _463  and  _464
REMARK  198  A    between atoms: _473  and  _475
REMARK  199  A    between atoms: _475  and  _476
REMARK  200  A    between atoms: _475  and  _478
REMARK  201  A    between atoms: _478  and  _479
REMARK  202  A    between atoms: _484  and  _485
REMARK  203  A    between atoms: _487  and  _489
REMARK  204  A    between atoms: _489  and  _490
REMARK  205  A    between atoms: _492  and  _494
REMARK  206  A    between atoms: _494  and  _495
REMARK  207  A    between atoms: _494  and  _497
REMARK  208  A    between atoms: _497  and  _498
REMARK  209  A    between atoms: _501  and  _503
REMARK  210  A    between atoms: _503  and  _504
REMARK  211  A    between atoms: _503  and  _506
REMARK  212  A    between atoms: _506  and  _507
REMARK  213  A    between atoms: _512  and  _513
REMARK  214  A    between atoms: _515  and  _517
REMARK  215  A    between atoms: _517  and  _518
REMARK  216  A    between atoms: _517  and  _520
REMARK  217  A    between atoms: _520  and  _521
REMARK                            x       y       z     vdW  Elec       q    Type
REMARK                         _______ _______ _______ _____ _____    ______ ____
ROOT
ATOM      1  O   HOH     1       5.914  -5.243  17.775  0.00  0.00    +0.000 OA
ENDROOT
TORSDOF 0
REMARK  Name = ../refined-set-2016/2boh/2boh_pocket.pdb
REMARK  217 active torsions:
REMARK  status: ('A' for Active; 'I' for Inactive)
REMARK    1  A    between atoms: _1  and  _5
REMARK    2  A    between atoms: _5  and  _6
REMARK    3  A    between atoms: _5  and  _8
REMARK    4  A    between atoms: _8  and  _9
REMARK    5  A    between atoms: _12  and  _14
REMARK    6  A    between atoms: _14  and  _15
REMARK    7  A    between atoms: _14  and  _17
REMARK    8  A    between atoms: _20  and  _22
REMARK    9  A    between atoms: _22  and  _23
REMARK   10  A    between atoms: _22  and  _25
REMARK   11  A    between atoms: _25  and  _26
REMARK   12  A    between atoms: _32  and  _34
REMARK   13  A    between atoms: _34  and  _35
REMARK   14  A    between atoms: _34  and  _37
REMARK   15  A    between atoms: _39  and  _41
REMARK   16  A    between atoms: _41  and  _42
REMARK   17  A    between atoms: _41  and  _44
REMARK   18  A    between atoms: _44  and  _45
REMARK   19  A    between atoms: _50  and  _52
REMARK   20  A    between atoms: _52  and  _53
REMARK   21  A    between atoms: _52  and  _55
REMARK   22  A    between atoms: _55  and  _56
REMARK   23  A    between atoms: _56  and  _57
REMARK   24  A    between atoms: _62  and  _64
REMARK   25  A    between atoms: _64  and  _65
REMARK   26  A    between atoms: _64  and  _67
REMARK   27  A    between atoms: _67  and  _68
REMARK   28  A    between atoms: _74  and  _76
REMARK   29  A    between atoms: _76  and  _77
REMARK   30  A    between atoms: _76  and  _79
REMARK   31  A    between atoms: _79  and  _80
REMARK   32  A    between atoms: _83  and  _85
REMARK   33  A    between atoms: _85  and  _86
REMARK   34  A    between atoms: _85  and  _88
REMARK   35  A    between atoms: _88  and  _89
REMARK   36  A    between atoms: _89  and  _90
REMARK   37  A    between atoms: _90  and  _91
REMARK   38  A    between atoms: _91  and  _92
REMARK   39  A    between atoms: _96  and  _98
REMARK   40  A    between atoms: _98  and  _99
REMARK   41  A    between atoms: _98  and  _101
REMARK   42  A    between atoms: _101  and  _102
REMARK   43  A    between atoms: _102  and  _103
REMARK   44  A    between atoms: _106  and  _108
REMARK   45  A    between atoms: _108  and  _109
REMARK   46  A    between atoms: _108  and  _111
REMARK   47  A    between atoms: _111  and  _112
REMARK   48  A    between atoms: _115  and  _117
REMARK   49  A    between atoms: _117  and  _118
REMARK   50  A    between atoms: _117  and  _120
REMARK   51  A    between atoms: _120  and  _121
REMARK   52  A    between atoms: _126  and  _127
REMARK   53  A    between atoms: _129  and  _131
REMARK   54  A    between atoms: _131  and  _132
REMARK   55  A    between atoms: _131  and  _134
REMARK   56  A    between atoms: _134  and  _135
REMARK   57  A    between atoms: _138  and  _140
REMARK   58  A    between atoms: _140  and  _141
REMARK   59  A    between atoms: _140  and  _143
REMARK   60  A    between atoms: _143  and  _144
REMARK   61  A    between atoms: _147  and  _149
REMARK   62  A    between atoms: _149  and  _150
REMARK   63  A    between atoms: _149  and  _152
REMARK   64  A    between atoms: _155  and  _157
REMARK   65  A    between atoms: _157  and  _158
REMARK   66  A    between atoms: _157  and  _160
REMARK   67  A    between atoms: _160  and  _161
REMARK   68  A    between atoms: _161  and  _162
REMARK   69  A    between atoms: _162  and  _163
REMARK   70  A    between atoms: _172  and  _174
REMARK   71  A    between atoms: _174  and  _175
REMARK   72  A    between atoms: _174  and  _177
REMARK   73  A    between atoms: _177  and  _178
REMARK   74  A    between atoms: _183  and  _185
REMARK   75  A    between atoms: _185  and  _186
REMARK   76  A    between atoms: _185  and  _188
REMARK   77  A    between atoms: _188  and  _189
REMARK   78  A    between atoms: _189  and  _190
REMARK   79  A    between atoms: _193  and  _195
REMARK   80  A    between atoms: _195  and  _196
REMARK   81  A    between atoms: _195  and  _198
REMARK   82  A    between atoms: _198  and  _199
REMARK   83  A    between atoms: _199  and  _200
REMARK   84  A    between atoms: _200  and  _201
REMARK   85  A    between atoms: _201  and  _202
REMARK   86  A    between atoms: _206  and  _208
REMARK   87  A    between atoms: _208  and  _209
REMARK   88  A    between atoms: _211  and  _213
REMARK   89  A    between atoms: _213  and  _214
REMARK   90  A    between atoms: _213  and  _216
REMARK   91  A    between atoms: _219  and  _221
REMARK   92  A    between atoms: _221  and  _222
REMARK   93  A    between atoms: _221  and  _224
REMARK   94  A    between atoms: _224  and  _225
REMARK   95  A    between atoms: _227  and  _229
REMARK   96  A    between atoms: _229  and  _230
REMARK   97  A    between atoms: _229  and  _232
REMARK   98  A    between atoms: _232  and  _233
REMARK   99  A    between atoms: _235  and  _237
REMARK  100  A    between atoms: _237  and  _238
REMARK  101  A    between atoms: _237  and  _240
REMARK  102  A    between atoms: _240  and  _241
REMARK  103  A    between atoms: _247  and  _249
REMARK  104  A    between atoms: _249  and  _250
REMARK  105  A    between atoms: _249  and  _252
REMARK  106  A    between atoms: _252  and  _253
REMARK  107  A    between atoms: _256  and  _258
REMARK  108  A    between atoms: _258  and  _259
REMARK  109  A    between atoms: _258  and  _261
REMARK  110  A    between atoms: _261  and  _262
REMARK  111  A    between atoms: _262  and  _263
REMARK  112  A    between atoms: _265  and  _267
REMARK  113  A    between atoms: _267  and  _268
REMARK  114  A    between atoms: _267  and  _270
REMARK  115  A    between atoms: _270  and  _271
REMARK  116  A    between atoms: _277  and  _279
REMARK  117  A    between atoms: _279  and  _280
REMARK  118  A    between atoms: _279  and  _282
REMARK  119  A    between atoms: _284  and  _286
REMARK  120  A    between atoms: _286  and  _287
REMARK  121  A    between atoms: _290  and  _292
REMARK  122  A    between atoms: _292  and  _293
REMARK  123  A    between atoms: _295  and  _297
REMARK  124  A    between atoms: _297  and  _298
REMARK  125  A    between atoms: _297  and  _300
REMARK  126  A    between atoms: _300  and  _301
REMARK  127  A    between atoms: _301  and  _302
REMARK  128  A    between atoms: _305  and  _307
REMARK  129  A    between atoms: _307  and  _308
REMARK  130  A    between atoms: _307  and  _310
REMARK  131  A    between atoms: _310  and  _311
REMARK  132  A    between atoms: _314  and  _316
REMARK  133  A    between atoms: _316  and  _317
REMARK  134  A    between atoms: _320  and  _322
REMARK  135  A    between atoms: _322  and  _323
REMARK  136  A    between atoms: _322  and  _325
REMARK  137  A    between atoms: _325  and  _326
REMARK  138  A    between atoms: _326  and  _449
REMARK  139  A    between atoms: _327  and  _329
REMARK  140  A    between atoms: _329  and  _330
REMARK  141  A    between atoms: _329  and  _332
REMARK  142  A    between atoms: _332  and  _333
REMARK  143  A    between atoms: _333  and  _334
REMARK  144  A    between atoms: _339  and  _341
REMARK  145  A    between atoms: _341  and  _342
REMARK  146  A    between atoms: _344  and  _346
REMARK  147  A    between atoms: _346  and  _347
REMARK  148  A    between atoms: _346  and  _349
REMARK  149  A    between atoms: _349  and  _350
REMARK  150  A    between atoms: _353  and  _355
REMARK  151  A    between atoms: _355  and  _356
REMARK  152  A    between atoms: _355  and  _358
REMARK  153  A    between atoms: _358  and  _359
REMARK  154  A    between atoms: _361  and  _363
REMARK  155  A    between atoms: _363  and  _364
REMARK  156  A    between atoms: _366  and  _368
REMARK  157  A    between atoms: _368  and  _369
REMARK  158  A    between atoms: _371  and  _373
REMARK  159  A    between atoms: _373  and  _374
REMARK  160  A    between atoms: _373  and  _376
REMARK  161  A    between atoms: _376  and  _377
REMARK  162  A    between atoms: _382  and  _384
REMARK  163  A    between atoms: _384  and  _385
REMARK  164  A    between atoms: _384  and  _387
REMARK  165  A    between atoms: _387  and  _388
REMARK  166  A    between atoms: _391  and  _393
REMARK  167  A    between atoms: _393  and  _394
REMARK  168  A    between atoms: _393  and  _396
REMARK  169  A    between atoms: _399  and  _401
REMARK  170  A    between atoms: _401  and  _402
REMARK  171  A    between atoms: _401  and  _404
REMARK  172  A    between atoms: _404  and  _405
REMARK  173  A    between atoms: _407  and  _409
REMARK  174  A    between atoms: _409  and  _410
REMARK  175  A    between atoms: _409  and  _412
REMARK  176  A    between atoms: _412  and  _413
REMARK  177  A    between atoms: _423  and  _425
REMARK  178  A    between atoms: _425  and  _426
REMARK  179  A    between atoms: _428  and  _430
REMARK  180  A    between atoms: _430  and  _431
REMARK  181  A    between atoms: _430  and  _433
REMARK  182  A    between atoms: _433  and  _434
REMARK  183  A    between atoms: _434  and  _435
REMARK  184  A    between atoms: _438  and  _440
REMARK  185  A    between atoms: _440  and  _441
REMARK  186  A    between atoms: _443  and  _445
REMARK  187  A    between atoms: _445  and  _446
REMARK  188  A    between atoms: _445  and  _448
REMARK  189  A    between atoms: _448  and  _449
REMARK  190  A    between atoms: _450  and  _452
REMARK  191  A    between atoms: _452  and  _453
REMARK  192  A    between atoms: _456  and  _458
REMARK  193  A    between atoms: _458  and  _459
REMARK  194  A    between atoms: _458  and  _461
REMARK  195  A    between atoms: _461  and  _462
REMARK  196  A    between atoms: _462  and  _463
REMARK  197  A    between atoms: _463  and  _464
REMARK  198  A    between atoms: _473  and  _475
REMARK  199  A    between atoms: _475  and  _476
REMARK  200  A    between atoms: _475  and  _478
REMARK  201  A    between atoms: _478  and  _479
REMARK  202  A    between atoms: _484  and  _485
REMARK  203  A    between atoms: _487  and  _489
REMARK  204  A    between atoms: _489  and  _490
REMARK  205  A    between atoms: _492  and  _494
REMARK  206  A    between atoms: _494  and  _495
REMARK  207  A    between atoms: _494  and  _497
REMARK  208  A    between atoms: _497  and  _498
REMARK  209  A    between atoms: _501  and  _503
REMARK  210  A    between atoms: _503  and  _504
REMARK  211  A    between atoms: _503  and  _506
REMARK  212  A    between atoms: _506  and  _507
REMARK  213  A    between atoms: _512  and  _513
REMARK  214  A    between atoms: _515  and  _517
REMARK  215  A    between atoms: _517  and  _518
REMARK  216  A    between atoms: _517  and  _520
REMARK  217  A    between atoms: _520  and  _521
REMARK                            x       y       z     vdW  Elec       q    Type
REMARK                         _______ _______ _______ _____ _____    ______ ____
ROOT
ATOM      1  O   HOH     1      12.151  -1.484  17.247  0.00  0.00    +0.000 OA
ENDROOT
TORSDOF 0
REMARK  Name = ../refined-set-2016/2boh/2boh_pocket.pdb
REMARK  217 active torsions:
REMARK  status: ('A' for Active; 'I' for Inactive)
REMARK    1  A    between atoms: _1  and  _5
REMARK    2  A    between atoms: _5  and  _6
REMARK    3  A    between atoms: _5  and  _8
REMARK    4  A    between atoms: _8  and  _9
REMARK    5  A    between atoms: _12  and  _14
REMARK    6  A    between atoms: _14  and  _15
REMARK    7  A    between atoms: _14  and  _17
REMARK    8  A    between atoms: _20  and  _22
REMARK    9  A    between atoms: _22  and  _23
REMARK   10  A    between atoms: _22  and  _25
REMARK   11  A    between atoms: _25  and  _26
REMARK   12  A    between atoms: _32  and  _34
REMARK   13  A    between atoms: _34  and  _35
REMARK   14  A    between atoms: _34  and  _37
REMARK   15  A    between atoms: _39  and  _41
REMARK   16  A    between atoms: _41  and  _42
REMARK   17  A    between atoms: _41  and  _44
REMARK   18  A    between atoms: _44  and  _45
REMARK   19  A    between atoms: _50  and  _52
REMARK   20  A    between atoms: _52  and  _53
REMARK   21  A    between atoms: _52  and  _55
REMARK   22  A    between atoms: _55  and  _56
REMARK   23  A    between atoms: _56  and  _57
REMARK   24  A    between atoms: _62  and  _64
REMARK   25  A    between atoms: _64  and  _65
REMARK   26  A    between atoms: _64  and  _67
REMARK   27  A    between atoms: _67  and  _68
REMARK   28  A    between atoms: _74  and  _76
REMARK   29  A    between atoms: _76  and  _77
REMARK   30  A    between atoms: _76  and  _79
REMARK   31  A    between atoms: _79  and  _80
REMARK   32  A    between atoms: _83  and  _85
REMARK   33  A    between atoms: _85  and  _86
REMARK   34  A    between atoms: _85  and  _88
REMARK   35  A    between atoms: _88  and  _89
REMARK   36  A    between atoms: _89  and  _90
REMARK   37  A    between atoms: _90  and  _91
REMARK   38  A    between atoms: _91  and  _92
REMARK   39  A    between atoms: _96  and  _98
REMARK   40  A    between atoms: _98  and  _99
REMARK   41  A    between atoms: _98  and  _101
REMARK   42  A    between atoms: _101  and  _102
REMARK   43  A    between atoms: _102  and  _103
REMARK   44  A    between atoms: _106  and  _108
REMARK   45  A    between atoms: _108  and  _109
REMARK   46  A    between atoms: _108  and  _111
REMARK   47  A    between atoms: _111  and  _112
REMARK   48  A    between atoms: _115  and  _117
REMARK   49  A    between atoms: _117  and  _118
REMARK   50  A    between atoms: _117  and  _120
REMARK   51  A    between atoms: _120  and  _121
REMARK   52  A    between atoms: _126  and  _127
REMARK   53  A    between atoms: _129  and  _131
REMARK   54  A    between atoms: _131  and  _132
REMARK   55  A    between atoms: _131  and  _134
REMARK   56  A    between atoms: _134  and  _135
REMARK   57  A    between atoms: _138  and  _140
REMARK   58  A    between atoms: _140  and  _141
REMARK   59  A    between atoms: _140  and  _143
REMARK   60  A    between atoms: _143  and  _144
REMARK   61  A    between atoms: _147  and  _149
REMARK   62  A    between atoms: _149  and  _150
REMARK   63  A    between atoms: _149  and  _152
REMARK   64  A    between atoms: _155  and  _157
REMARK   65  A    between atoms: _157  and  _158
REMARK   66  A    between atoms: _157  and  _160
REMARK   67  A    between atoms: _160  and  _161
REMARK   68  A    between atoms: _161  and  _162
REMARK   69  A    between atoms: _162  and  _163
REMARK   70  A    between atoms: _172  and  _174
REMARK   71  A    between atoms: _174  and  _175
REMARK   72  A    between atoms: _174  and  _177
REMARK   73  A    between atoms: _177  and  _178
REMARK   74  A    between atoms: _183  and  _185
REMARK   75  A    between atoms: _185  and  _186
REMARK   76  A    between atoms: _185  and  _188
REMARK   77  A    between atoms: _188  and  _189
REMARK   78  A    between atoms: _189  and  _190
REMARK   79  A    between atoms: _193  and  _195
REMARK   80  A    between atoms: _195  and  _196
REMARK   81  A    between atoms: _195  and  _198
REMARK   82  A    between atoms: _198  and  _199
REMARK   83  A    between atoms: _199  and  _200
REMARK   84  A    between atoms: _200  and  _201
REMARK   85  A    between atoms: _201  and  _202
REMARK   86  A    between atoms: _206  and  _208
REMARK   87  A    between atoms: _208  and  _209
REMARK   88  A    between atoms: _211  and  _213
REMARK   89  A    between atoms: _213  and  _214
REMARK   90  A    between atoms: _213  and  _216
REMARK   91  A    between atoms: _219  and  _221
REMARK   92  A    between atoms: _221  and  _222
REMARK   93  A    between atoms: _221  and  _224
REMARK   94  A    between atoms: _224  and  _225
REMARK   95  A    between atoms: _227  and  _229
REMARK   96  A    between atoms: _229  and  _230
REMARK   97  A    between atoms: _229  and  _232
REMARK   98  A    between atoms: _232  and  _233
REMARK   99  A    between atoms: _235  and  _237
REMARK  100  A    between atoms: _237  and  _238
REMARK  101  A    between atoms: _237  and  _240
REMARK  102  A    between atoms: _240  and  _241
REMARK  103  A    between atoms: _247  and  _249
REMARK  104  A    between atoms: _249  and  _250
REMARK  105  A    between atoms: _249  and  _252
REMARK  106  A    between atoms: _252  and  _253
REMARK  107  A    between atoms: _256  and  _258
REMARK  108  A    between atoms: _258  and  _259
REMARK  109  A    between atoms: _258  and  _261
REMARK  110  A    between atoms: _261  and  _262
REMARK  111  A    between atoms: _262  and  _263
REMARK  112  A    between atoms: _265  and  _267
REMARK  113  A    between atoms: _267  and  _268
REMARK  114  A    between atoms: _267  and  _270
REMARK  115  A    between atoms: _270  and  _271
REMARK  116  A    between atoms: _277  and  _279
REMARK  117  A    between atoms: _279  and  _280
REMARK  118  A    between atoms: _279  and  _282
REMARK  119  A    between atoms: _284  and  _286
REMARK  120  A    between atoms: _286  and  _287
REMARK  121  A    between atoms: _290  and  _292
REMARK  122  A    between atoms: _292  and  _293
REMARK  123  A    between atoms: _295  and  _297
REMARK  124  A    between atoms: _297  and  _298
REMARK  125  A    between atoms: _297  and  _300
REMARK  126  A    between atoms: _300  and  _301
REMARK  127  A    between atoms: _301  and  _302
REMARK  128  A    between atoms: _305  and  _307
REMARK  129  A    between atoms: _307  and  _308
REMARK  130  A    between atoms: _307  and  _310
REMARK  131  A    between atoms: _310  and  _311
REMARK  132  A    between atoms: _314  and  _316
REMARK  133  A    between atoms: _316  and  _317
REMARK  134  A    between atoms: _320  and  _322
REMARK  135  A    between atoms: _322  and  _323
REMARK  136  A    between atoms: _322  and  _325
REMARK  137  A    between atoms: _325  and  _326
REMARK  138  A    between atoms: _326  and  _449
REMARK  139  A    between atoms: _327  and  _329
REMARK  140  A    between atoms: _329  and  _330
REMARK  141  A    between atoms: _329  and  _332
REMARK  142  A    between atoms: _332  and  _333
REMARK  143  A    between atoms: _333  and  _334
REMARK  144  A    between atoms: _339  and  _341
REMARK  145  A    between atoms: _341  and  _342
REMARK  146  A    between atoms: _344  and  _346
REMARK  147  A    between atoms: _346  and  _347
REMARK  148  A    between atoms: _346  and  _349
REMARK  149  A    between atoms: _349  and  _350
REMARK  150  A    between atoms: _353  and  _355
REMARK  151  A    between atoms: _355  and  _356
REMARK  152  A    between atoms: _355  and  _358
REMARK  153  A    between atoms: _358  and  _359
REMARK  154  A    between atoms: _361  and  _363
REMARK  155  A    between atoms: _363  and  _364
REMARK  156  A    between atoms: _366  and  _368
REMARK  157  A    between atoms: _368  and  _369
REMARK  158  A    between atoms: _371  and  _373
REMARK  159  A    between atoms: _373  and  _374
REMARK  160  A    between atoms: _373  and  _376
REMARK  161  A    between atoms: _376  and  _377
REMARK  162  A    between atoms: _382  and  _384
REMARK  163  A    between atoms: _384  and  _385
REMARK  164  A    between atoms: _384  and  _387
REMARK  165  A    between atoms: _387  and  _388
REMARK  166  A    between atoms: _391  and  _393
REMARK  167  A    between atoms: _393  and  _394
REMARK  168  A    between atoms: _393  and  _396
REMARK  169  A    between atoms: _399  and  _401
REMARK  170  A    between atoms: _401  and  _402
REMARK  171  A    between atoms: _401  and  _404
REMARK  172  A    between atoms: _404  and  _405
REMARK  173  A    between atoms: _407  and  _409
REMARK  174  A    between atoms: _409  and  _410
REMARK  175  A    between atoms: _409  and  _412
REMARK  176  A    between atoms: _412  and  _413
REMARK  177  A    between atoms: _423  and  _425
REMARK  178  A    between atoms: _425  and  _426
REMARK  179  A    between atoms: _428  and  _430
REMARK  180  A    between atoms: _430  and  _431
REMARK  181  A    between atoms: _430  and  _433
REMARK  182  A    between atoms: _433  and  _434
REMARK  183  A    between atoms: _434  and  _435
REMARK  184  A    between atoms: _438  and  _440
REMARK  185  A    between atoms: _440  and  _441
REMARK  186  A    between atoms: _443  and  _445
REMARK  187  A    between atoms: _445  and  _446
REMARK  188  A    between atoms: _445  and  _448
REMARK  189  A    between atoms: _448  and  _449
REMARK  190  A    between atoms: _450  and  _452
REMARK  191  A    between atoms: _452  and  _453
REMARK  192  A    between atoms: _456  and  _458
REMARK  193  A    between atoms: _458  and  _459
REMARK  194  A    between atoms: _458  and  _461
REMARK  195  A    between atoms: _461  and  _462
REMARK  196  A    between atoms: _462  and  _463
REMARK  197  A    between atoms: _463  and  _464
REMARK  198  A    between atoms: _473  and  _475
REMARK  199  A    between atoms: _475  and  _476
REMARK  200  A    between atoms: _475  and  _478
REMARK  201  A    between atoms: _478  and  _479
REMARK  202  A    between atoms: _484  and  _485
REMARK  203  A    between atoms: _487  and  _489
REMARK  204  A    between atoms: _489  and  _490
REMARK  205  A    between atoms: _492  and  _494
REMARK  206  A    between atoms: _494  and  _495
REMARK  207  A    between atoms: _494  and  _497
REMARK  208  A    between atoms: _497  and  _498
REMARK  209  A    between atoms: _501  and  _503
REMARK  210  A    between atoms: _503  and  _504
REMARK  211  A    between atoms: _503  and  _506
REMARK  212  A    between atoms: _506  and  _507
REMARK  213  A    between atoms: _512  and  _513
REMARK  214  A    between atoms: _515  and  _517
REMARK  215  A    between atoms: _517  and  _518
REMARK  216  A    between atoms: _517  and  _520
REMARK  217  A    between atoms: _520  and  _521
REMARK                            x       y       z     vdW  Elec       q    Type
REMARK                         _______ _______ _______ _____ _____    ______ ____
ROOT
ATOM      1  O   HOH     1      12.265   4.560  33.826  0.00  0.00    +0.000 OA
ENDROOT
TORSDOF 0
REMARK  Name = ../refined-set-2016/2boh/2boh_pocket.pdb
REMARK  217 active torsions:
REMARK  status: ('A' for Active; 'I' for Inactive)
REMARK    1  A    between atoms: _1  and  _5
REMARK    2  A    between atoms: _5  and  _6
REMARK    3  A    between atoms: _5  and  _8
REMARK    4  A    between atoms: _8  and  _9
REMARK    5  A    between atoms: _12  and  _14
REMARK    6  A    between atoms: _14  and  _15
REMARK    7  A    between atoms: _14  and  _17
REMARK    8  A    between atoms: _20  and  _22
REMARK    9  A    between atoms: _22  and  _23
REMARK   10  A    between atoms: _22  and  _25
REMARK   11  A    between atoms: _25  and  _26
REMARK   12  A    between atoms: _32  and  _34
REMARK   13  A    between atoms: _34  and  _35
REMARK   14  A    between atoms: _34  and  _37
REMARK   15  A    between atoms: _39  and  _41
REMARK   16  A    between atoms: _41  and  _42
REMARK   17  A    between atoms: _41  and  _44
REMARK   18  A    between atoms: _44  and  _45
REMARK   19  A    between atoms: _50  and  _52
REMARK   20  A    between atoms: _52  and  _53
REMARK   21  A    between atoms: _52  and  _55
REMARK   22  A    between atoms: _55  and  _56
REMARK   23  A    between atoms: _56  and  _57
REMARK   24  A    between atoms: _62  and  _64
REMARK   25  A    between atoms: _64  and  _65
REMARK   26  A    between atoms: _64  and  _67
REMARK   27  A    between atoms: _67  and  _68
REMARK   28  A    between atoms: _74  and  _76
REMARK   29  A    between atoms: _76  and  _77
REMARK   30  A    between atoms: _76  and  _79
REMARK   31  A    between atoms: _79  and  _80
REMARK   32  A    between atoms: _83  and  _85
REMARK   33  A    between atoms: _85  and  _86
REMARK   34  A    between atoms: _85  and  _88
REMARK   35  A    between atoms: _88  and  _89
REMARK   36  A    between atoms: _89  and  _90
REMARK   37  A    between atoms: _90  and  _91
REMARK   38  A    between atoms: _91  and  _92
REMARK   39  A    between atoms: _96  and  _98
REMARK   40  A    between atoms: _98  and  _99
REMARK   41  A    between atoms: _98  and  _101
REMARK   42  A    between atoms: _101  and  _102
REMARK   43  A    between atoms: _102  and  _103
REMARK   44  A    between atoms: _106  and  _108
REMARK   45  A    between atoms: _108  and  _109
REMARK   46  A    between atoms: _108  and  _111
REMARK   47  A    between atoms: _111  and  _112
REMARK   48  A    between atoms: _115  and  _117
REMARK   49  A    between atoms: _117  and  _118
REMARK   50  A    between atoms: _117  and  _120
REMARK   51  A    between atoms: _120  and  _121
REMARK   52  A    between atoms: _126  and  _127
REMARK   53  A    between atoms: _129  and  _131
REMARK   54  A    between atoms: _131  and  _132
REMARK   55  A    between atoms: _131  and  _134
REMARK   56  A    between atoms: _134  and  _135
REMARK   57  A    between atoms: _138  and  _140
REMARK   58  A    between atoms: _140  and  _141
REMARK   59  A    between atoms: _140  and  _143
REMARK   60  A    between atoms: _143  and  _144
REMARK   61  A    between atoms: _147  and  _149
REMARK   62  A    between atoms: _149  and  _150
REMARK   63  A    between atoms: _149  and  _152
REMARK   64  A    between atoms: _155  and  _157
REMARK   65  A    between atoms: _157  and  _158
REMARK   66  A    between atoms: _157  and  _160
REMARK   67  A    between atoms: _160  and  _161
REMARK   68  A    between atoms: _161  and  _162
REMARK   69  A    between atoms: _162  and  _163
REMARK   70  A    between atoms: _172  and  _174
REMARK   71  A    between atoms: _174  and  _175
REMARK   72  A    between atoms: _174  and  _177
REMARK   73  A    between atoms: _177  and  _178
REMARK   74  A    between atoms: _183  and  _185
REMARK   75  A    between atoms: _185  and  _186
REMARK   76  A    between atoms: _185  and  _188
REMARK   77  A    between atoms: _188  and  _189
REMARK   78  A    between atoms: _189  and  _190
REMARK   79  A    between atoms: _193  and  _195
REMARK   80  A    between atoms: _195  and  _196
REMARK   81  A    between atoms: _195  and  _198
REMARK   82  A    between atoms: _198  and  _199
REMARK   83  A    between atoms: _199  and  _200
REMARK   84  A    between atoms: _200  and  _201
REMARK   85  A    between atoms: _201  and  _202
REMARK   86  A    between atoms: _206  and  _208
REMARK   87  A    between atoms: _208  and  _209
REMARK   88  A    between atoms: _211  and  _213
REMARK   89  A    between atoms: _213  and  _214
REMARK   90  A    between atoms: _213  and  _216
REMARK   91  A    between atoms: _219  and  _221
REMARK   92  A    between atoms: _221  and  _222
REMARK   93  A    between atoms: _221  and  _224
REMARK   94  A    between atoms: _224  and  _225
REMARK   95  A    between atoms: _227  and  _229
REMARK   96  A    between atoms: _229  and  _230
REMARK   97  A    between atoms: _229  and  _232
REMARK   98  A    between atoms: _232  and  _233
REMARK   99  A    between atoms: _235  and  _237
REMARK  100  A    between atoms: _237  and  _238
REMARK  101  A    between atoms: _237  and  _240
REMARK  102  A    between atoms: _240  and  _241
REMARK  103  A    between atoms: _247  and  _249
REMARK  104  A    between atoms: _249  and  _250
REMARK  105  A    between atoms: _249  and  _252
REMARK  106  A    between atoms: _252  and  _253
REMARK  107  A    between atoms: _256  and  _258
REMARK  108  A    between atoms: _258  and  _259
REMARK  109  A    between atoms: _258  and  _261
REMARK  110  A    between atoms: _261  and  _262
REMARK  111  A    between atoms: _262  and  _263
REMARK  112  A    between atoms: _265  and  _267
REMARK  113  A    between atoms: _267  and  _268
REMARK  114  A    between atoms: _267  and  _270
REMARK  115  A    between atoms: _270  and  _271
REMARK  116  A    between atoms: _277  and  _279
REMARK  117  A    between atoms: _279  and  _280
REMARK  118  A    between atoms: _279  and  _282
REMARK  119  A    between atoms: _284  and  _286
REMARK  120  A    between atoms: _286  and  _287
REMARK  121  A    between atoms: _290  and  _292
REMARK  122  A    between atoms: _292  and  _293
REMARK  123  A    between atoms: _295  and  _297
REMARK  124  A    between atoms: _297  and  _298
REMARK  125  A    between atoms: _297  and  _300
REMARK  126  A    between atoms: _300  and  _301
REMARK  127  A    between atoms: _301  and  _302
REMARK  128  A    between atoms: _305  and  _307
REMARK  129  A    between atoms: _307  and  _308
REMARK  130  A    between atoms: _307  and  _310
REMARK  131  A    between atoms: _310  and  _311
REMARK  132  A    between atoms: _314  and  _316
REMARK  133  A    between atoms: _316  and  _317
REMARK  134  A    between atoms: _320  and  _322
REMARK  135  A    between atoms: _322  and  _323
REMARK  136  A    between atoms: _322  and  _325
REMARK  137  A    between atoms: _325  and  _326
REMARK  138  A    between atoms: _326  and  _449
REMARK  139  A    between atoms: _327  and  _329
REMARK  140  A    between atoms: _329  and  _330
REMARK  141  A    between atoms: _329  and  _332
REMARK  142  A    between atoms: _332  and  _333
REMARK  143  A    between atoms: _333  and  _334
REMARK  144  A    between atoms: _339  and  _341
REMARK  145  A    between atoms: _341  and  _342
REMARK  146  A    between atoms: _344  and  _346
REMARK  147  A    between atoms: _346  and  _347
REMARK  148  A    between atoms: _346  and  _349
REMARK  149  A    between atoms: _349  and  _350
REMARK  150  A    between atoms: _353  and  _355
REMARK  151  A    between atoms: _355  and  _356
REMARK  152  A    between atoms: _355  and  _358
REMARK  153  A    between atoms: _358  and  _359
REMARK  154  A    between atoms: _361  and  _363
REMARK  155  A    between atoms: _363  and  _364
REMARK  156  A    between atoms: _366  and  _368
REMARK  157  A    between atoms: _368  and  _369
REMARK  158  A    between atoms: _371  and  _373
REMARK  159  A    between atoms: _373  and  _374
REMARK  160  A    between atoms: _373  and  _376
REMARK  161  A    between atoms: _376  and  _377
REMARK  162  A    between atoms: _382  and  _384
REMARK  163  A    between atoms: _384  and  _385
REMARK  164  A    between atoms: _384  and  _387
REMARK  165  A    between atoms: _387  and  _388
REMARK  166  A    between atoms: _391  and  _393
REMARK  167  A    between atoms: _393  and  _394
REMARK  168  A    between atoms: _393  and  _396
REMARK  169  A    between atoms: _399  and  _401
REMARK  170  A    between atoms: _401  and  _402
REMARK  171  A    between atoms: _401  and  _404
REMARK  172  A    between atoms: _404  and  _405
REMARK  173  A    between atoms: _407  and  _409
REMARK  174  A    between atoms: _409  and  _410
REMARK  175  A    between atoms: _409  and  _412
REMARK  176  A    between atoms: _412  and  _413
REMARK  177  A    between atoms: _423  and  _425
REMARK  178  A    between atoms: _425  and  _426
REMARK  179  A    between atoms: _428  and  _430
REMARK  180  A    between atoms: _430  and  _431
REMARK  181  A    between atoms: _430  and  _433
REMARK  182  A    between atoms: _433  and  _434
REMARK  183  A    between atoms: _434  and  _435
REMARK  184  A    between atoms: _438  and  _440
REMARK  185  A    between atoms: _440  and  _441
REMARK  186  A    between atoms: _443  and  _445
REMARK  187  A    between atoms: _445  and  _446
REMARK  188  A    between atoms: _445  and  _448
REMARK  189  A    between atoms: _448  and  _449
REMARK  190  A    between atoms: _450  and  _452
REMARK  191  A    between atoms: _452  and  _453
REMARK  192  A    between atoms: _456  and  _458
REMARK  193  A    between atoms: _458  and  _459
REMARK  194  A    between atoms: _458  and  _461
REMARK  195  A    between atoms: _461  and  _462
REMARK  196  A    between atoms: _462  and  _463
REMARK  197  A    between atoms: _463  and  _464
REMARK  198  A    between atoms: _473  and  _475
REMARK  199  A    between atoms: _475  and  _476
REMARK  200  A    between atoms: _475  and  _478
REMARK  201  A    between atoms: _478  and  _479
REMARK  202  A    between atoms: _484  and  _485
REMARK  203  A    between atoms: _487  and  _489
REMARK  204  A    between atoms: _489  and  _490
REMARK  205  A    between atoms: _492  and  _494
REMARK  206  A    between atoms: _494  and  _495
REMARK  207  A    between atoms: _494  and  _497
REMARK  208  A    between atoms: _497  and  _498
REMARK  209  A    between atoms: _501  and  _503
REMARK  210  A    between atoms: _503  and  _504
REMARK  211  A    between atoms: _503  and  _506
REMARK  212  A    between atoms: _506  and  _507
REMARK  213  A    between atoms: _512  and  _513
REMARK  214  A    between atoms: _515  and  _517
REMARK  215  A    between atoms: _517  and  _518
REMARK  216  A    between atoms: _517  and  _520
REMARK  217  A    between atoms: _520  and  _521
REMARK                            x       y       z     vdW  Elec       q    Type
REMARK                         _______ _______ _______ _____ _____    ______ ____
ROOT
ATOM      1  O   HOH     1       9.503   4.276  28.902  0.00  0.00    +0.000 OA
ENDROOT
TORSDOF 0
REMARK  Name = ../refined-set-2016/2boh/2boh_pocket.pdb
REMARK  217 active torsions:
REMARK  status: ('A' for Active; 'I' for Inactive)
REMARK    1  A    between atoms: _1  and  _5
REMARK    2  A    between atoms: _5  and  _6
REMARK    3  A    between atoms: _5  and  _8
REMARK    4  A    between atoms: _8  and  _9
REMARK    5  A    between atoms: _12  and  _14
REMARK    6  A    between atoms: _14  and  _15
REMARK    7  A    between atoms: _14  and  _17
REMARK    8  A    between atoms: _20  and  _22
REMARK    9  A    between atoms: _22  and  _23
REMARK   10  A    between atoms: _22  and  _25
REMARK   11  A    between atoms: _25  and  _26
REMARK   12  A    between atoms: _32  and  _34
REMARK   13  A    between atoms: _34  and  _35
REMARK   14  A    between atoms: _34  and  _37
REMARK   15  A    between atoms: _39  and  _41
REMARK   16  A    between atoms: _41  and  _42
REMARK   17  A    between atoms: _41  and  _44
REMARK   18  A    between atoms: _44  and  _45
REMARK   19  A    between atoms: _50  and  _52
REMARK   20  A    between atoms: _52  and  _53
REMARK   21  A    between atoms: _52  and  _55
REMARK   22  A    between atoms: _55  and  _56
REMARK   23  A    between atoms: _56  and  _57
REMARK   24  A    between atoms: _62  and  _64
REMARK   25  A    between atoms: _64  and  _65
REMARK   26  A    between atoms: _64  and  _67
REMARK   27  A    between atoms: _67  and  _68
REMARK   28  A    between atoms: _74  and  _76
REMARK   29  A    between atoms: _76  and  _77
REMARK   30  A    between atoms: _76  and  _79
REMARK   31  A    between atoms: _79  and  _80
REMARK   32  A    between atoms: _83  and  _85
REMARK   33  A    between atoms: _85  and  _86
REMARK   34  A    between atoms: _85  and  _88
REMARK   35  A    between atoms: _88  and  _89
REMARK   36  A    between atoms: _89  and  _90
REMARK   37  A    between atoms: _90  and  _91
REMARK   38  A    between atoms: _91  and  _92
REMARK   39  A    between atoms: _96  and  _98
REMARK   40  A    between atoms: _98  and  _99
REMARK   41  A    between atoms: _98  and  _101
REMARK   42  A    between atoms: _101  and  _102
REMARK   43  A    between atoms: _102  and  _103
REMARK   44  A    between atoms: _106  and  _108
REMARK   45  A    between atoms: _108  and  _109
REMARK   46  A    between atoms: _108  and  _111
REMARK   47  A    between atoms: _111  and  _112
REMARK   48  A    between atoms: _115  and  _117
REMARK   49  A    between atoms: _117  and  _118
REMARK   50  A    between atoms: _117  and  _120
REMARK   51  A    between atoms: _120  and  _121
REMARK   52  A    between atoms: _126  and  _127
REMARK   53  A    between atoms: _129  and  _131
REMARK   54  A    between atoms: _131  and  _132
REMARK   55  A    between atoms: _131  and  _134
REMARK   56  A    between atoms: _134  and  _135
REMARK   57  A    between atoms: _138  and  _140
REMARK   58  A    between atoms: _140  and  _141
REMARK   59  A    between atoms: _140  and  _143
REMARK   60  A    between atoms: _143  and  _144
REMARK   61  A    between atoms: _147  and  _149
REMARK   62  A    between atoms: _149  and  _150
REMARK   63  A    between atoms: _149  and  _152
REMARK   64  A    between atoms: _155  and  _157
REMARK   65  A    between atoms: _157  and  _158
REMARK   66  A    between atoms: _157  and  _160
REMARK   67  A    between atoms: _160  and  _161
REMARK   68  A    between atoms: _161  and  _162
REMARK   69  A    between atoms: _162  and  _163
REMARK   70  A    between atoms: _172  and  _174
REMARK   71  A    between atoms: _174  and  _175
REMARK   72  A    between atoms: _174  and  _177
REMARK   73  A    between atoms: _177  and  _178
REMARK   74  A    between atoms: _183  and  _185
REMARK   75  A    between atoms: _185  and  _186
REMARK   76  A    between atoms: _185  and  _188
REMARK   77  A    between atoms: _188  and  _189
REMARK   78  A    between atoms: _189  and  _190
REMARK   79  A    between atoms: _193  and  _195
REMARK   80  A    between atoms: _195  and  _196
REMARK   81  A    between atoms: _195  and  _198
REMARK   82  A    between atoms: _198  and  _199
REMARK   83  A    between atoms: _199  and  _200
REMARK   84  A    between atoms: _200  and  _201
REMARK   85  A    between atoms: _201  and  _202
REMARK   86  A    between atoms: _206  and  _208
REMARK   87  A    between atoms: _208  and  _209
REMARK   88  A    between atoms: _211  and  _213
REMARK   89  A    between atoms: _213  and  _214
REMARK   90  A    between atoms: _213  and  _216
REMARK   91  A    between atoms: _219  and  _221
REMARK   92  A    between atoms: _221  and  _222
REMARK   93  A    between atoms: _221  and  _224
REMARK   94  A    between atoms: _224  and  _225
REMARK   95  A    between atoms: _227  and  _229
REMARK   96  A    between atoms: _229  and  _230
REMARK   97  A    between atoms: _229  and  _232
REMARK   98  A    between atoms: _232  and  _233
REMARK   99  A    between atoms: _235  and  _237
REMARK  100  A    between atoms: _237  and  _238
REMARK  101  A    between atoms: _237  and  _240
REMARK  102  A    between atoms: _240  and  _241
REMARK  103  A    between atoms: _247  and  _249
REMARK  104  A    between atoms: _249  and  _250
REMARK  105  A    between atoms: _249  and  _252
REMARK  106  A    between atoms: _252  and  _253
REMARK  107  A    between atoms: _256  and  _258
REMARK  108  A    between atoms: _258  and  _259
REMARK  109  A    between atoms: _258  and  _261
REMARK  110  A    between atoms: _261  and  _262
REMARK  111  A    between atoms: _262  and  _263
REMARK  112  A    between atoms: _265  and  _267
REMARK  113  A    between atoms: _267  and  _268
REMARK  114  A    between atoms: _267  and  _270
REMARK  115  A    between atoms: _270  and  _271
REMARK  116  A    between atoms: _277  and  _279
REMARK  117  A    between atoms: _279  and  _280
REMARK  118  A    between atoms: _279  and  _282
REMARK  119  A    between atoms: _284  and  _286
REMARK  120  A    between atoms: _286  and  _287
REMARK  121  A    between atoms: _290  and  _292
REMARK  122  A    between atoms: _292  and  _293
REMARK  123  A    between atoms: _295  and  _297
REMARK  124  A    between atoms: _297  and  _298
REMARK  125  A    between atoms: _297  and  _300
REMARK  126  A    between atoms: _300  and  _301
REMARK  127  A    between atoms: _301  and  _302
REMARK  128  A    between atoms: _305  and  _307
REMARK  129  A    between atoms: _307  and  _308
REMARK  130  A    between atoms: _307  and  _310
REMARK  131  A    between atoms: _310  and  _311
REMARK  132  A    between atoms: _314  and  _316
REMARK  133  A    between atoms: _316  and  _317
REMARK  134  A    between atoms: _320  and  _322
REMARK  135  A    between atoms: _322  and  _323
REMARK  136  A    between atoms: _322  and  _325
REMARK  137  A    between atoms: _325  and  _326
REMARK  138  A    between atoms: _326  and  _449
REMARK  139  A    between atoms: _327  and  _329
REMARK  140  A    between atoms: _329  and  _330
REMARK  141  A    between atoms: _329  and  _332
REMARK  142  A    between atoms: _332  and  _333
REMARK  143  A    between atoms: _333  and  _334
REMARK  144  A    between atoms: _339  and  _341
REMARK  145  A    between atoms: _341  and  _342
REMARK  146  A    between atoms: _344  and  _346
REMARK  147  A    between atoms: _346  and  _347
REMARK  148  A    between atoms: _346  and  _349
REMARK  149  A    between atoms: _349  and  _350
REMARK  150  A    between atoms: _353  and  _355
REMARK  151  A    between atoms: _355  and  _356
REMARK  152  A    between atoms: _355  and  _358
REMARK  153  A    between atoms: _358  and  _359
REMARK  154  A    between atoms: _361  and  _363
REMARK  155  A    between atoms: _363  and  _364
REMARK  156  A    between atoms: _366  and  _368
REMARK  157  A    between atoms: _368  and  _369
REMARK  158  A    between atoms: _371  and  _373
REMARK  159  A    between atoms: _373  and  _374
REMARK  160  A    between atoms: _373  and  _376
REMARK  161  A    between atoms: _376  and  _377
REMARK  162  A    between atoms: _382  and  _384
REMARK  163  A    between atoms: _384  and  _385
REMARK  164  A    between atoms: _384  and  _387
REMARK  165  A    between atoms: _387  and  _388
REMARK  166  A    between atoms: _391  and  _393
REMARK  167  A    between atoms: _393  and  _394
REMARK  168  A    between atoms: _393  and  _396
REMARK  169  A    between atoms: _399  and  _401
REMARK  170  A    between atoms: _401  and  _402
REMARK  171  A    between atoms: _401  and  _404
REMARK  172  A    between atoms: _404  and  _405
REMARK  173  A    between atoms: _407  and  _409
REMARK  174  A    between atoms: _409  and  _410
REMARK  175  A    between atoms: _409  and  _412
REMARK  176  A    between atoms: _412  and  _413
REMARK  177  A    between atoms: _423  and  _425
REMARK  178  A    between atoms: _425  and  _426
REMARK  179  A    between atoms: _428  and  _430
REMARK  180  A    between atoms: _430  and  _431
REMARK  181  A    between atoms: _430  and  _433
REMARK  182  A    between atoms: _433  and  _434
REMARK  183  A    between atoms: _434  and  _435
REMARK  184  A    between atoms: _438  and  _440
REMARK  185  A    between atoms: _440  and  _441
REMARK  186  A    between atoms: _443  and  _445
REMARK  187  A    between atoms: _445  and  _446
REMARK  188  A    between atoms: _445  and  _448
REMARK  189  A    between atoms: _448  and  _449
REMARK  190  A    between atoms: _450  and  _452
REMARK  191  A    between atoms: _452  and  _453
REMARK  192  A    between atoms: _456  and  _458
REMARK  193  A    between atoms: _458  and  _459
REMARK  194  A    between atoms: _458  and  _461
REMARK  195  A    between atoms: _461  and  _462
REMARK  196  A    between atoms: _462  and  _463
REMARK  197  A    between atoms: _463  and  _464
REMARK  198  A    between atoms: _473  and  _475
REMARK  199  A    between atoms: _475  and  _476
REMARK  200  A    between atoms: _475  and  _478
REMARK  201  A    between atoms: _478  and  _479
REMARK  202  A    between atoms: _484  and  _485
REMARK  203  A    between atoms: _487  and  _489
REMARK  204  A    between atoms: _489  and  _490
REMARK  205  A    between atoms: _492  and  _494
REMARK  206  A    between atoms: _494  and  _495
REMARK  207  A    between atoms: _494  and  _497
REMARK  208  A    between atoms: _497  and  _498
REMARK  209  A    between atoms: _501  and  _503
REMARK  210  A    between atoms: _503  and  _504
REMARK  211  A    between atoms: _503  and  _506
REMARK  212  A    between atoms: _506  and  _507
REMARK  213  A    between atoms: _512  and  _513
REMARK  214  A    between atoms: _515  and  _517
REMARK  215  A    between atoms: _517  and  _518
REMARK  216  A    between atoms: _517  and  _520
REMARK  217  A    between atoms: _520  and  _521
REMARK                            x       y       z     vdW  Elec       q    Type
REMARK                         _______ _______ _______ _____ _____    ______ ____
ROOT
ATOM      1  O   HOH     1       1.621  15.253  20.787  0.00  0.00    +0.000 OA
ENDROOT
TORSDOF 0
REMARK  Name = ../refined-set-2016/2boh/2boh_pocket.pdb
REMARK  217 active torsions:
REMARK  status: ('A' for Active; 'I' for Inactive)
REMARK    1  A    between atoms: _1  and  _5
REMARK    2  A    between atoms: _5  and  _6
REMARK    3  A    between atoms: _5  and  _8
REMARK    4  A    between atoms: _8  and  _9
REMARK    5  A    between atoms: _12  and  _14
REMARK    6  A    between atoms: _14  and  _15
REMARK    7  A    between atoms: _14  and  _17
REMARK    8  A    between atoms: _20  and  _22
REMARK    9  A    between atoms: _22  and  _23
REMARK   10  A    between atoms: _22  and  _25
REMARK   11  A    between atoms: _25  and  _26
REMARK   12  A    between atoms: _32  and  _34
REMARK   13  A    between atoms: _34  and  _35
REMARK   14  A    between atoms: _34  and  _37
REMARK   15  A    between atoms: _39  and  _41
REMARK   16  A    between atoms: _41  and  _42
REMARK   17  A    between atoms: _41  and  _44
REMARK   18  A    between atoms: _44  and  _45
REMARK   19  A    between atoms: _50  and  _52
REMARK   20  A    between atoms: _52  and  _53
REMARK   21  A    between atoms: _52  and  _55
REMARK   22  A    between atoms: _55  and  _56
REMARK   23  A    between atoms: _56  and  _57
REMARK   24  A    between atoms: _62  and  _64
REMARK   25  A    between atoms: _64  and  _65
REMARK   26  A    between atoms: _64  and  _67
REMARK   27  A    between atoms: _67  and  _68
REMARK   28  A    between atoms: _74  and  _76
REMARK   29  A    between atoms: _76  and  _77
REMARK   30  A    between atoms: _76  and  _79
REMARK   31  A    between atoms: _79  and  _80
REMARK   32  A    between atoms: _83  and  _85
REMARK   33  A    between atoms: _85  and  _86
REMARK   34  A    between atoms: _85  and  _88
REMARK   35  A    between atoms: _88  and  _89
REMARK   36  A    between atoms: _89  and  _90
REMARK   37  A    between atoms: _90  and  _91
REMARK   38  A    between atoms: _91  and  _92
REMARK   39  A    between atoms: _96  and  _98
REMARK   40  A    between atoms: _98  and  _99
REMARK   41  A    between atoms: _98  and  _101
REMARK   42  A    between atoms: _101  and  _102
REMARK   43  A    between atoms: _102  and  _103
REMARK   44  A    between atoms: _106  and  _108
REMARK   45  A    between atoms: _108  and  _109
REMARK   46  A    between atoms: _108  and  _111
REMARK   47  A    between atoms: _111  and  _112
REMARK   48  A    between atoms: _115  and  _117
REMARK   49  A    between atoms: _117  and  _118
REMARK   50  A    between atoms: _117  and  _120
REMARK   51  A    between atoms: _120  and  _121
REMARK   52  A    between atoms: _126  and  _127
REMARK   53  A    between atoms: _129  and  _131
REMARK   54  A    between atoms: _131  and  _132
REMARK   55  A    between atoms: _131  and  _134
REMARK   56  A    between atoms: _134  and  _135
REMARK   57  A    between atoms: _138  and  _140
REMARK   58  A    between atoms: _140  and  _141
REMARK   59  A    between atoms: _140  and  _143
REMARK   60  A    between atoms: _143  and  _144
REMARK   61  A    between atoms: _147  and  _149
REMARK   62  A    between atoms: _149  and  _150
REMARK   63  A    between atoms: _149  and  _152
REMARK   64  A    between atoms: _155  and  _157
REMARK   65  A    between atoms: _157  and  _158
REMARK   66  A    between atoms: _157  and  _160
REMARK   67  A    between atoms: _160  and  _161
REMARK   68  A    between atoms: _161  and  _162
REMARK   69  A    between atoms: _162  and  _163
REMARK   70  A    between atoms: _172  and  _174
REMARK   71  A    between atoms: _174  and  _175
REMARK   72  A    between atoms: _174  and  _177
REMARK   73  A    between atoms: _177  and  _178
REMARK   74  A    between atoms: _183  and  _185
REMARK   75  A    between atoms: _185  and  _186
REMARK   76  A    between atoms: _185  and  _188
REMARK   77  A    between atoms: _188  and  _189
REMARK   78  A    between atoms: _189  and  _190
REMARK   79  A    between atoms: _193  and  _195
REMARK   80  A    between atoms: _195  and  _196
REMARK   81  A    between atoms: _195  and  _198
REMARK   82  A    between atoms: _198  and  _199
REMARK   83  A    between atoms: _199  and  _200
REMARK   84  A    between atoms: _200  and  _201
REMARK   85  A    between atoms: _201  and  _202
REMARK   86  A    between atoms: _206  and  _208
REMARK   87  A    between atoms: _208  and  _209
REMARK   88  A    between atoms: _211  and  _213
REMARK   89  A    between atoms: _213  and  _214
REMARK   90  A    between atoms: _213  and  _216
REMARK   91  A    between atoms: _219  and  _221
REMARK   92  A    between atoms: _221  and  _222
REMARK   93  A    between atoms: _221  and  _224
REMARK   94  A    between atoms: _224  and  _225
REMARK   95  A    between atoms: _227  and  _229
REMARK   96  A    between atoms: _229  and  _230
REMARK   97  A    between atoms: _229  and  _232
REMARK   98  A    between atoms: _232  and  _233
REMARK   99  A    between atoms: _235  and  _237
REMARK  100  A    between atoms: _237  and  _238
REMARK  101  A    between atoms: _237  and  _240
REMARK  102  A    between atoms: _240  and  _241
REMARK  103  A    between atoms: _247  and  _249
REMARK  104  A    between atoms: _249  and  _250
REMARK  105  A    between atoms: _249  and  _252
REMARK  106  A    between atoms: _252  and  _253
REMARK  107  A    between atoms: _256  and  _258
REMARK  108  A    between atoms: _258  and  _259
REMARK  109  A    between atoms: _258  and  _261
REMARK  110  A    between atoms: _261  and  _262
REMARK  111  A    between atoms: _262  and  _263
REMARK  112  A    between atoms: _265  and  _267
REMARK  113  A    between atoms: _267  and  _268
REMARK  114  A    between atoms: _267  and  _270
REMARK  115  A    between atoms: _270  and  _271
REMARK  116  A    between atoms: _277  and  _279
REMARK  117  A    between atoms: _279  and  _280
REMARK  118  A    between atoms: _279  and  _282
REMARK  119  A    between atoms: _284  and  _286
REMARK  120  A    between atoms: _286  and  _287
REMARK  121  A    between atoms: _290  and  _292
REMARK  122  A    between atoms: _292  and  _293
REMARK  123  A    between atoms: _295  and  _297
REMARK  124  A    between atoms: _297  and  _298
REMARK  125  A    between atoms: _297  and  _300
REMARK  126  A    between atoms: _300  and  _301
REMARK  127  A    between atoms: _301  and  _302
REMARK  128  A    between atoms: _305  and  _307
REMARK  129  A    between atoms: _307  and  _308
REMARK  130  A    between atoms: _307  and  _310
REMARK  131  A    between atoms: _310  and  _311
REMARK  132  A    between atoms: _314  and  _316
REMARK  133  A    between atoms: _316  and  _317
REMARK  134  A    between atoms: _320  and  _322
REMARK  135  A    between atoms: _322  and  _323
REMARK  136  A    between atoms: _322  and  _325
REMARK  137  A    between atoms: _325  and  _326
REMARK  138  A    between atoms: _326  and  _449
REMARK  139  A    between atoms: _327  and  _329
REMARK  140  A    between atoms: _329  and  _330
REMARK  141  A    between atoms: _329  and  _332
REMARK  142  A    between atoms: _332  and  _333
REMARK  143  A    between atoms: _333  and  _334
REMARK  144  A    between atoms: _339  and  _341
REMARK  145  A    between atoms: _341  and  _342
REMARK  146  A    between atoms: _344  and  _346
REMARK  147  A    between atoms: _346  and  _347
REMARK  148  A    between atoms: _346  and  _349
REMARK  149  A    between atoms: _349  and  _350
REMARK  150  A    between atoms: _353  and  _355
REMARK  151  A    between atoms: _355  and  _356
REMARK  152  A    between atoms: _355  and  _358
REMARK  153  A    between atoms: _358  and  _359
REMARK  154  A    between atoms: _361  and  _363
REMARK  155  A    between atoms: _363  and  _364
REMARK  156  A    between atoms: _366  and  _368
REMARK  157  A    between atoms: _368  and  _369
REMARK  158  A    between atoms: _371  and  _373
REMARK  159  A    between atoms: _373  and  _374
REMARK  160  A    between atoms: _373  and  _376
REMARK  161  A    between atoms: _376  and  _377
REMARK  162  A    between atoms: _382  and  _384
REMARK  163  A    between atoms: _384  and  _385
REMARK  164  A    between atoms: _384  and  _387
REMARK  165  A    between atoms: _387  and  _388
REMARK  166  A    between atoms: _391  and  _393
REMARK  167  A    between atoms: _393  and  _394
REMARK  168  A    between atoms: _393  and  _396
REMARK  169  A    between atoms: _399  and  _401
REMARK  170  A    between atoms: _401  and  _402
REMARK  171  A    between atoms: _401  and  _404
REMARK  172  A    between atoms: _404  and  _405
REMARK  173  A    between atoms: _407  and  _409
REMARK  174  A    between atoms: _409  and  _410
REMARK  175  A    between atoms: _409  and  _412
REMARK  176  A    between atoms: _412  and  _413
REMARK  177  A    between atoms: _423  and  _425
REMARK  178  A    between atoms: _425  and  _426
REMARK  179  A    between atoms: _428  and  _430
REMARK  180  A    between atoms: _430  and  _431
REMARK  181  A    between atoms: _430  and  _433
REMARK  182  A    between atoms: _433  and  _434
REMARK  183  A    between atoms: _434  and  _435
REMARK  184  A    between atoms: _438  and  _440
REMARK  185  A    between atoms: _440  and  _441
REMARK  186  A    between atoms: _443  and  _445
REMARK  187  A    between atoms: _445  and  _446
REMARK  188  A    between atoms: _445  and  _448
REMARK  189  A    between atoms: _448  and  _449
REMARK  190  A    between atoms: _450  and  _452
REMARK  191  A    between atoms: _452  and  _453
REMARK  192  A    between atoms: _456  and  _458
REMARK  193  A    between atoms: _458  and  _459
REMARK  194  A    between atoms: _458  and  _461
REMARK  195  A    between atoms: _461  and  _462
REMARK  196  A    between atoms: _462  and  _463
REMARK  197  A    between atoms: _463  and  _464
REMARK  198  A    between atoms: _473  and  _475
REMARK  199  A    between atoms: _475  and  _476
REMARK  200  A    between atoms: _475  and  _478
REMARK  201  A    between atoms: _478  and  _479
REMARK  202  A    between atoms: _484  and  _485
REMARK  203  A    between atoms: _487  and  _489
REMARK  204  A    between atoms: _489  and  _490
REMARK  205  A    between atoms: _492  and  _494
REMARK  206  A    between atoms: _494  and  _495
REMARK  207  A    between atoms: _494  and  _497
REMARK  208  A    between atoms: _497  and  _498
REMARK  209  A    between atoms: _501  and  _503
REMARK  210  A    between atoms: _503  and  _504
REMARK  211  A    between atoms: _503  and  _506
REMARK  212  A    between atoms: _506  and  _507
REMARK  213  A    between atoms: _512  and  _513
REMARK  214  A    between atoms: _515  and  _517
REMARK  215  A    between atoms: _517  and  _518
REMARK  216  A    between atoms: _517  and  _520
REMARK  217  A    between atoms: _520  and  _521
REMARK                            x       y       z     vdW  Elec       q    Type
REMARK                         _______ _______ _______ _____ _____    ______ ____
ROOT
ATOM      1  O   HOH     1       1.403  10.016  21.886  0.00  0.00    +0.000 OA
ENDROOT
TORSDOF 0
REMARK  Name = ../refined-set-2016/2boh/2boh_pocket.pdb
REMARK  217 active torsions:
REMARK  status: ('A' for Active; 'I' for Inactive)
REMARK    1  A    between atoms: _1  and  _5
REMARK    2  A    between atoms: _5  and  _6
REMARK    3  A    between atoms: _5  and  _8
REMARK    4  A    between atoms: _8  and  _9
REMARK    5  A    between atoms: _12  and  _14
REMARK    6  A    between atoms: _14  and  _15
REMARK    7  A    between atoms: _14  and  _17
REMARK    8  A    between atoms: _20  and  _22
REMARK    9  A    between atoms: _22  and  _23
REMARK   10  A    between atoms: _22  and  _25
REMARK   11  A    between atoms: _25  and  _26
REMARK   12  A    between atoms: _32  and  _34
REMARK   13  A    between atoms: _34  and  _35
REMARK   14  A    between atoms: _34  and  _37
REMARK   15  A    between atoms: _39  and  _41
REMARK   16  A    between atoms: _41  and  _42
REMARK   17  A    between atoms: _41  and  _44
REMARK   18  A    between atoms: _44  and  _45
REMARK   19  A    between atoms: _50  and  _52
REMARK   20  A    between atoms: _52  and  _53
REMARK   21  A    between atoms: _52  and  _55
REMARK   22  A    between atoms: _55  and  _56
REMARK   23  A    between atoms: _56  and  _57
REMARK   24  A    between atoms: _62  and  _64
REMARK   25  A    between atoms: _64  and  _65
REMARK   26  A    between atoms: _64  and  _67
REMARK   27  A    between atoms: _67  and  _68
REMARK   28  A    between atoms: _74  and  _76
REMARK   29  A    between atoms: _76  and  _77
REMARK   30  A    between atoms: _76  and  _79
REMARK   31  A    between atoms: _79  and  _80
REMARK   32  A    between atoms: _83  and  _85
REMARK   33  A    between atoms: _85  and  _86
REMARK   34  A    between atoms: _85  and  _88
REMARK   35  A    between atoms: _88  and  _89
REMARK   36  A    between atoms: _89  and  _90
REMARK   37  A    between atoms: _90  and  _91
REMARK   38  A    between atoms: _91  and  _92
REMARK   39  A    between atoms: _96  and  _98
REMARK   40  A    between atoms: _98  and  _99
REMARK   41  A    between atoms: _98  and  _101
REMARK   42  A    between atoms: _101  and  _102
REMARK   43  A    between atoms: _102  and  _103
REMARK   44  A    between atoms: _106  and  _108
REMARK   45  A    between atoms: _108  and  _109
REMARK   46  A    between atoms: _108  and  _111
REMARK   47  A    between atoms: _111  and  _112
REMARK   48  A    between atoms: _115  and  _117
REMARK   49  A    between atoms: _117  and  _118
REMARK   50  A    between atoms: _117  and  _120
REMARK   51  A    between atoms: _120  and  _121
REMARK   52  A    between atoms: _126  and  _127
REMARK   53  A    between atoms: _129  and  _131
REMARK   54  A    between atoms: _131  and  _132
REMARK   55  A    between atoms: _131  and  _134
REMARK   56  A    between atoms: _134  and  _135
REMARK   57  A    between atoms: _138  and  _140
REMARK   58  A    between atoms: _140  and  _141
REMARK   59  A    between atoms: _140  and  _143
REMARK   60  A    between atoms: _143  and  _144
REMARK   61  A    between atoms: _147  and  _149
REMARK   62  A    between atoms: _149  and  _150
REMARK   63  A    between atoms: _149  and  _152
REMARK   64  A    between atoms: _155  and  _157
REMARK   65  A    between atoms: _157  and  _158
REMARK   66  A    between atoms: _157  and  _160
REMARK   67  A    between atoms: _160  and  _161
REMARK   68  A    between atoms: _161  and  _162
REMARK   69  A    between atoms: _162  and  _163
REMARK   70  A    between atoms: _172  and  _174
REMARK   71  A    between atoms: _174  and  _175
REMARK   72  A    between atoms: _174  and  _177
REMARK   73  A    between atoms: _177  and  _178
REMARK   74  A    between atoms: _183  and  _185
REMARK   75  A    between atoms: _185  and  _186
REMARK   76  A    between atoms: _185  and  _188
REMARK   77  A    between atoms: _188  and  _189
REMARK   78  A    between atoms: _189  and  _190
REMARK   79  A    between atoms: _193  and  _195
REMARK   80  A    between atoms: _195  and  _196
REMARK   81  A    between atoms: _195  and  _198
REMARK   82  A    between atoms: _198  and  _199
REMARK   83  A    between atoms: _199  and  _200
REMARK   84  A    between atoms: _200  and  _201
REMARK   85  A    between atoms: _201  and  _202
REMARK   86  A    between atoms: _206  and  _208
REMARK   87  A    between atoms: _208  and  _209
REMARK   88  A    between atoms: _211  and  _213
REMARK   89  A    between atoms: _213  and  _214
REMARK   90  A    between atoms: _213  and  _216
REMARK   91  A    between atoms: _219  and  _221
REMARK   92  A    between atoms: _221  and  _222
REMARK   93  A    between atoms: _221  and  _224
REMARK   94  A    between atoms: _224  and  _225
REMARK   95  A    between atoms: _227  and  _229
REMARK   96  A    between atoms: _229  and  _230
REMARK   97  A    between atoms: _229  and  _232
REMARK   98  A    between atoms: _232  and  _233
REMARK   99  A    between atoms: _235  and  _237
REMARK  100  A    between atoms: _237  and  _238
REMARK  101  A    between atoms: _237  and  _240
REMARK  102  A    between atoms: _240  and  _241
REMARK  103  A    between atoms: _247  and  _249
REMARK  104  A    between atoms: _249  and  _250
REMARK  105  A    between atoms: _249  and  _252
REMARK  106  A    between atoms: _252  and  _253
REMARK  107  A    between atoms: _256  and  _258
REMARK  108  A    between atoms: _258  and  _259
REMARK  109  A    between atoms: _258  and  _261
REMARK  110  A    between atoms: _261  and  _262
REMARK  111  A    between atoms: _262  and  _263
REMARK  112  A    between atoms: _265  and  _267
REMARK  113  A    between atoms: _267  and  _268
REMARK  114  A    between atoms: _267  and  _270
REMARK  115  A    between atoms: _270  and  _271
REMARK  116  A    between atoms: _277  and  _279
REMARK  117  A    between atoms: _279  and  _280
REMARK  118  A    between atoms: _279  and  _282
REMARK  119  A    between atoms: _284  and  _286
REMARK  120  A    between atoms: _286  and  _287
REMARK  121  A    between atoms: _290  and  _292
REMARK  122  A    between atoms: _292  and  _293
REMARK  123  A    between atoms: _295  and  _297
REMARK  124  A    between atoms: _297  and  _298
REMARK  125  A    between atoms: _297  and  _300
REMARK  126  A    between atoms: _300  and  _301
REMARK  127  A    between atoms: _301  and  _302
REMARK  128  A    between atoms: _305  and  _307
REMARK  129  A    between atoms: _307  and  _308
REMARK  130  A    between atoms: _307  and  _310
REMARK  131  A    between atoms: _310  and  _311
REMARK  132  A    between atoms: _314  and  _316
REMARK  133  A    between atoms: _316  and  _317
REMARK  134  A    between atoms: _320  and  _322
REMARK  135  A    between atoms: _322  and  _323
REMARK  136  A    between atoms: _322  and  _325
REMARK  137  A    between atoms: _325  and  _326
REMARK  138  A    between atoms: _326  and  _449
REMARK  139  A    between atoms: _327  and  _329
REMARK  140  A    between atoms: _329  and  _330
REMARK  141  A    between atoms: _329  and  _332
REMARK  142  A    between atoms: _332  and  _333
REMARK  143  A    between atoms: _333  and  _334
REMARK  144  A    between atoms: _339  and  _341
REMARK  145  A    between atoms: _341  and  _342
REMARK  146  A    between atoms: _344  and  _346
REMARK  147  A    between atoms: _346  and  _347
REMARK  148  A    between atoms: _346  and  _349
REMARK  149  A    between atoms: _349  and  _350
REMARK  150  A    between atoms: _353  and  _355
REMARK  151  A    between atoms: _355  and  _356
REMARK  152  A    between atoms: _355  and  _358
REMARK  153  A    between atoms: _358  and  _359
REMARK  154  A    between atoms: _361  and  _363
REMARK  155  A    between atoms: _363  and  _364
REMARK  156  A    between atoms: _366  and  _368
REMARK  157  A    between atoms: _368  and  _369
REMARK  158  A    between atoms: _371  and  _373
REMARK  159  A    between atoms: _373  and  _374
REMARK  160  A    between atoms: _373  and  _376
REMARK  161  A    between atoms: _376  and  _377
REMARK  162  A    between atoms: _382  and  _384
REMARK  163  A    between atoms: _384  and  _385
REMARK  164  A    between atoms: _384  and  _387
REMARK  165  A    between atoms: _387  and  _388
REMARK  166  A    between atoms: _391  and  _393
REMARK  167  A    between atoms: _393  and  _394
REMARK  168  A    between atoms: _393  and  _396
REMARK  169  A    between atoms: _399  and  _401
REMARK  170  A    between atoms: _401  and  _402
REMARK  171  A    between atoms: _401  and  _404
REMARK  172  A    between atoms: _404  and  _405
REMARK  173  A    between atoms: _407  and  _409
REMARK  174  A    between atoms: _409  and  _410
REMARK  175  A    between atoms: _409  and  _412
REMARK  176  A    between atoms: _412  and  _413
REMARK  177  A    between atoms: _423  and  _425
REMARK  178  A    between atoms: _425  and  _426
REMARK  179  A    between atoms: _428  and  _430
REMARK  180  A    between atoms: _430  and  _431
REMARK  181  A    between atoms: _430  and  _433
REMARK  182  A    between atoms: _433  and  _434
REMARK  183  A    between atoms: _434  and  _435
REMARK  184  A    between atoms: _438  and  _440
REMARK  185  A    between atoms: _440  and  _441
REMARK  186  A    between atoms: _443  and  _445
REMARK  187  A    between atoms: _445  and  _446
REMARK  188  A    between atoms: _445  and  _448
REMARK  189  A    between atoms: _448  and  _449
REMARK  190  A    between atoms: _450  and  _452
REMARK  191  A    between atoms: _452  and  _453
REMARK  192  A    between atoms: _456  and  _458
REMARK  193  A    between atoms: _458  and  _459
REMARK  194  A    between atoms: _458  and  _461
REMARK  195  A    between atoms: _461  and  _462
REMARK  196  A    between atoms: _462  and  _463
REMARK  197  A    between atoms: _463  and  _464
REMARK  198  A    between atoms: _473  and  _475
REMARK  199  A    between atoms: _475  and  _476
REMARK  200  A    between atoms: _475  and  _478
REMARK  201  A    between atoms: _478  and  _479
REMARK  202  A    between atoms: _484  and  _485
REMARK  203  A    between atoms: _487  and  _489
REMARK  204  A    between atoms: _489  and  _490
REMARK  205  A    between atoms: _492  and  _494
REMARK  206  A    between atoms: _494  and  _495
REMARK  207  A    between atoms: _494  and  _497
REMARK  208  A    between atoms: _497  and  _498
REMARK  209  A    between atoms: _501  and  _503
REMARK  210  A    between atoms: _503  and  _504
REMARK  211  A    between atoms: _503  and  _506
REMARK  212  A    between atoms: _506  and  _507
REMARK  213  A    between atoms: _512  and  _513
REMARK  214  A    between atoms: _515  and  _517
REMARK  215  A    between atoms: _517  and  _518
REMARK  216  A    between atoms: _517  and  _520
REMARK  217  A    between atoms: _520  and  _521
REMARK                            x       y       z     vdW  Elec       q    Type
REMARK                         _______ _______ _______ _____ _____    ______ ____
ROOT
ATOM      1  O   HOH     1      16.152   4.163  18.689  0.00  0.00    +0.000 OA
ENDROOT
TORSDOF 0
REMARK  Name = ../refined-set-2016/2boh/2boh_pocket.pdb
REMARK  217 active torsions:
REMARK  status: ('A' for Active; 'I' for Inactive)
REMARK    1  A    between atoms: _1  and  _5
REMARK    2  A    between atoms: _5  and  _6
REMARK    3  A    between atoms: _5  and  _8
REMARK    4  A    between atoms: _8  and  _9
REMARK    5  A    between atoms: _12  and  _14
REMARK    6  A    between atoms: _14  and  _15
REMARK    7  A    between atoms: _14  and  _17
REMARK    8  A    between atoms: _20  and  _22
REMARK    9  A    between atoms: _22  and  _23
REMARK   10  A    between atoms: _22  and  _25
REMARK   11  A    between atoms: _25  and  _26
REMARK   12  A    between atoms: _32  and  _34
REMARK   13  A    between atoms: _34  and  _35
REMARK   14  A    between atoms: _34  and  _37
REMARK   15  A    between atoms: _39  and  _41
REMARK   16  A    between atoms: _41  and  _42
REMARK   17  A    between atoms: _41  and  _44
REMARK   18  A    between atoms: _44  and  _45
REMARK   19  A    between atoms: _50  and  _52
REMARK   20  A    between atoms: _52  and  _53
REMARK   21  A    between atoms: _52  and  _55
REMARK   22  A    between atoms: _55  and  _56
REMARK   23  A    between atoms: _56  and  _57
REMARK   24  A    between atoms: _62  and  _64
REMARK   25  A    between atoms: _64  and  _65
REMARK   26  A    between atoms: _64  and  _67
REMARK   27  A    between atoms: _67  and  _68
REMARK   28  A    between atoms: _74  and  _76
REMARK   29  A    between atoms: _76  and  _77
REMARK   30  A    between atoms: _76  and  _79
REMARK   31  A    between atoms: _79  and  _80
REMARK   32  A    between atoms: _83  and  _85
REMARK   33  A    between atoms: _85  and  _86
REMARK   34  A    between atoms: _85  and  _88
REMARK   35  A    between atoms: _88  and  _89
REMARK   36  A    between atoms: _89  and  _90
REMARK   37  A    between atoms: _90  and  _91
REMARK   38  A    between atoms: _91  and  _92
REMARK   39  A    between atoms: _96  and  _98
REMARK   40  A    between atoms: _98  and  _99
REMARK   41  A    between atoms: _98  and  _101
REMARK   42  A    between atoms: _101  and  _102
REMARK   43  A    between atoms: _102  and  _103
REMARK   44  A    between atoms: _106  and  _108
REMARK   45  A    between atoms: _108  and  _109
REMARK   46  A    between atoms: _108  and  _111
REMARK   47  A    between atoms: _111  and  _112
REMARK   48  A    between atoms: _115  and  _117
REMARK   49  A    between atoms: _117  and  _118
REMARK   50  A    between atoms: _117  and  _120
REMARK   51  A    between atoms: _120  and  _121
REMARK   52  A    between atoms: _126  and  _127
REMARK   53  A    between atoms: _129  and  _131
REMARK   54  A    between atoms: _131  and  _132
REMARK   55  A    between atoms: _131  and  _134
REMARK   56  A    between atoms: _134  and  _135
REMARK   57  A    between atoms: _138  and  _140
REMARK   58  A    between atoms: _140  and  _141
REMARK   59  A    between atoms: _140  and  _143
REMARK   60  A    between atoms: _143  and  _144
REMARK   61  A    between atoms: _147  and  _149
REMARK   62  A    between atoms: _149  and  _150
REMARK   63  A    between atoms: _149  and  _152
REMARK   64  A    between atoms: _155  and  _157
REMARK   65  A    between atoms: _157  and  _158
REMARK   66  A    between atoms: _157  and  _160
REMARK   67  A    between atoms: _160  and  _161
REMARK   68  A    between atoms: _161  and  _162
REMARK   69  A    between atoms: _162  and  _163
REMARK   70  A    between atoms: _172  and  _174
REMARK   71  A    between atoms: _174  and  _175
REMARK   72  A    between atoms: _174  and  _177
REMARK   73  A    between atoms: _177  and  _178
REMARK   74  A    between atoms: _183  and  _185
REMARK   75  A    between atoms: _185  and  _186
REMARK   76  A    between atoms: _185  and  _188
REMARK   77  A    between atoms: _188  and  _189
REMARK   78  A    between atoms: _189  and  _190
REMARK   79  A    between atoms: _193  and  _195
REMARK   80  A    between atoms: _195  and  _196
REMARK   81  A    between atoms: _195  and  _198
REMARK   82  A    between atoms: _198  and  _199
REMARK   83  A    between atoms: _199  and  _200
REMARK   84  A    between atoms: _200  and  _201
REMARK   85  A    between atoms: _201  and  _202
REMARK   86  A    between atoms: _206  and  _208
REMARK   87  A    between atoms: _208  and  _209
REMARK   88  A    between atoms: _211  and  _213
REMARK   89  A    between atoms: _213  and  _214
REMARK   90  A    between atoms: _213  and  _216
REMARK   91  A    between atoms: _219  and  _221
REMARK   92  A    between atoms: _221  and  _222
REMARK   93  A    between atoms: _221  and  _224
REMARK   94  A    between atoms: _224  and  _225
REMARK   95  A    between atoms: _227  and  _229
REMARK   96  A    between atoms: _229  and  _230
REMARK   97  A    between atoms: _229  and  _232
REMARK   98  A    between atoms: _232  and  _233
REMARK   99  A    between atoms: _235  and  _237
REMARK  100  A    between atoms: _237  and  _238
REMARK  101  A    between atoms: _237  and  _240
REMARK  102  A    between atoms: _240  and  _241
REMARK  103  A    between atoms: _247  and  _249
REMARK  104  A    between atoms: _249  and  _250
REMARK  105  A    between atoms: _249  and  _252
REMARK  106  A    between atoms: _252  and  _253
REMARK  107  A    between atoms: _256  and  _258
REMARK  108  A    between atoms: _258  and  _259
REMARK  109  A    between atoms: _258  and  _261
REMARK  110  A    between atoms: _261  and  _262
REMARK  111  A    between atoms: _262  and  _263
REMARK  112  A    between atoms: _265  and  _267
REMARK  113  A    between atoms: _267  and  _268
REMARK  114  A    between atoms: _267  and  _270
REMARK  115  A    between atoms: _270  and  _271
REMARK  116  A    between atoms: _277  and  _279
REMARK  117  A    between atoms: _279  and  _280
REMARK  118  A    between atoms: _279  and  _282
REMARK  119  A    between atoms: _284  and  _286
REMARK  120  A    between atoms: _286  and  _287
REMARK  121  A    between atoms: _290  and  _292
REMARK  122  A    between atoms: _292  and  _293
REMARK  123  A    between atoms: _295  and  _297
REMARK  124  A    between atoms: _297  and  _298
REMARK  125  A    between atoms: _297  and  _300
REMARK  126  A    between atoms: _300  and  _301
REMARK  127  A    between atoms: _301  and  _302
REMARK  128  A    between atoms: _305  and  _307
REMARK  129  A    between atoms: _307  and  _308
REMARK  130  A    between atoms: _307  and  _310
REMARK  131  A    between atoms: _310  and  _311
REMARK  132  A    between atoms: _314  and  _316
REMARK  133  A    between atoms: _316  and  _317
REMARK  134  A    between atoms: _320  and  _322
REMARK  135  A    between atoms: _322  and  _323
REMARK  136  A    between atoms: _322  and  _325
REMARK  137  A    between atoms: _325  and  _326
REMARK  138  A    between atoms: _326  and  _449
REMARK  139  A    between atoms: _327  and  _329
REMARK  140  A    between atoms: _329  and  _330
REMARK  141  A    between atoms: _329  and  _332
REMARK  142  A    between atoms: _332  and  _333
REMARK  143  A    between atoms: _333  and  _334
REMARK  144  A    between atoms: _339  and  _341
REMARK  145  A    between atoms: _341  and  _342
REMARK  146  A    between atoms: _344  and  _346
REMARK  147  A    between atoms: _346  and  _347
REMARK  148  A    between atoms: _346  and  _349
REMARK  149  A    between atoms: _349  and  _350
REMARK  150  A    between atoms: _353  and  _355
REMARK  151  A    between atoms: _355  and  _356
REMARK  152  A    between atoms: _355  and  _358
REMARK  153  A    between atoms: _358  and  _359
REMARK  154  A    between atoms: _361  and  _363
REMARK  155  A    between atoms: _363  and  _364
REMARK  156  A    between atoms: _366  and  _368
REMARK  157  A    between atoms: _368  and  _369
REMARK  158  A    between atoms: _371  and  _373
REMARK  159  A    between atoms: _373  and  _374
REMARK  160  A    between atoms: _373  and  _376
REMARK  161  A    between atoms: _376  and  _377
REMARK  162  A    between atoms: _382  and  _384
REMARK  163  A    between atoms: _384  and  _385
REMARK  164  A    between atoms: _384  and  _387
REMARK  165  A    between atoms: _387  and  _388
REMARK  166  A    between atoms: _391  and  _393
REMARK  167  A    between atoms: _393  and  _394
REMARK  168  A    between atoms: _393  and  _396
REMARK  169  A    between atoms: _399  and  _401
REMARK  170  A    between atoms: _401  and  _402
REMARK  171  A    between atoms: _401  and  _404
REMARK  172  A    between atoms: _404  and  _405
REMARK  173  A    between atoms: _407  and  _409
REMARK  174  A    between atoms: _409  and  _410
REMARK  175  A    between atoms: _409  and  _412
REMARK  176  A    between atoms: _412  and  _413
REMARK  177  A    between atoms: _423  and  _425
REMARK  178  A    between atoms: _425  and  _426
REMARK  179  A    between atoms: _428  and  _430
REMARK  180  A    between atoms: _430  and  _431
REMARK  181  A    between atoms: _430  and  _433
REMARK  182  A    between atoms: _433  and  _434
REMARK  183  A    between atoms: _434  and  _435
REMARK  184  A    between atoms: _438  and  _440
REMARK  185  A    between atoms: _440  and  _441
REMARK  186  A    between atoms: _443  and  _445
REMARK  187  A    between atoms: _445  and  _446
REMARK  188  A    between atoms: _445  and  _448
REMARK  189  A    between atoms: _448  and  _449
REMARK  190  A    between atoms: _450  and  _452
REMARK  191  A    between atoms: _452  and  _453
REMARK  192  A    between atoms: _456  and  _458
REMARK  193  A    between atoms: _458  and  _459
REMARK  194  A    between atoms: _458  and  _461
REMARK  195  A    between atoms: _461  and  _462
REMARK  196  A    between atoms: _462  and  _463
REMARK  197  A    between atoms: _463  and  _464
REMARK  198  A    between atoms: _473  and  _475
REMARK  199  A    between atoms: _475  and  _476
REMARK  200  A    between atoms: _475  and  _478
REMARK  201  A    between atoms: _478  and  _479
REMARK  202  A    between atoms: _484  and  _485
REMARK  203  A    between atoms: _487  and  _489
REMARK  204  A    between atoms: _489  and  _490
REMARK  205  A    between atoms: _492  and  _494
REMARK  206  A    between atoms: _494  and  _495
REMARK  207  A    between atoms: _494  and  _497
REMARK  208  A    between atoms: _497  and  _498
REMARK  209  A    between atoms: _501  and  _503
REMARK  210  A    between atoms: _503  and  _504
REMARK  211  A    between atoms: _503  and  _506
REMARK  212  A    between atoms: _506  and  _507
REMARK  213  A    between atoms: _512  and  _513
REMARK  214  A    between atoms: _515  and  _517
REMARK  215  A    between atoms: _517  and  _518
REMARK  216  A    between atoms: _517  and  _520
REMARK  217  A    between atoms: _520  and  _521
REMARK                            x       y       z     vdW  Elec       q    Type
REMARK                         _______ _______ _______ _____ _____    ______ ____
ROOT
ATOM      1  O   HOH     1       7.008   3.309  29.838  0.00  0.00    +0.000 OA
ENDROOT
TORSDOF 0
REMARK  Name = ../refined-set-2016/2boh/2boh_pocket.pdb
REMARK  217 active torsions:
REMARK  status: ('A' for Active; 'I' for Inactive)
REMARK    1  A    between atoms: _1  and  _5
REMARK    2  A    between atoms: _5  and  _6
REMARK    3  A    between atoms: _5  and  _8
REMARK    4  A    between atoms: _8  and  _9
REMARK    5  A    between atoms: _12  and  _14
REMARK    6  A    between atoms: _14  and  _15
REMARK    7  A    between atoms: _14  and  _17
REMARK    8  A    between atoms: _20  and  _22
REMARK    9  A    between atoms: _22  and  _23
REMARK   10  A    between atoms: _22  and  _25
REMARK   11  A    between atoms: _25  and  _26
REMARK   12  A    between atoms: _32  and  _34
REMARK   13  A    between atoms: _34  and  _35
REMARK   14  A    between atoms: _34  and  _37
REMARK   15  A    between atoms: _39  and  _41
REMARK   16  A    between atoms: _41  and  _42
REMARK   17  A    between atoms: _41  and  _44
REMARK   18  A    between atoms: _44  and  _45
REMARK   19  A    between atoms: _50  and  _52
REMARK   20  A    between atoms: _52  and  _53
REMARK   21  A    between atoms: _52  and  _55
REMARK   22  A    between atoms: _55  and  _56
REMARK   23  A    between atoms: _56  and  _57
REMARK   24  A    between atoms: _62  and  _64
REMARK   25  A    between atoms: _64  and  _65
REMARK   26  A    between atoms: _64  and  _67
REMARK   27  A    between atoms: _67  and  _68
REMARK   28  A    between atoms: _74  and  _76
REMARK   29  A    between atoms: _76  and  _77
REMARK   30  A    between atoms: _76  and  _79
REMARK   31  A    between atoms: _79  and  _80
REMARK   32  A    between atoms: _83  and  _85
REMARK   33  A    between atoms: _85  and  _86
REMARK   34  A    between atoms: _85  and  _88
REMARK   35  A    between atoms: _88  and  _89
REMARK   36  A    between atoms: _89  and  _90
REMARK   37  A    between atoms: _90  and  _91
REMARK   38  A    between atoms: _91  and  _92
REMARK   39  A    between atoms: _96  and  _98
REMARK   40  A    between atoms: _98  and  _99
REMARK   41  A    between atoms: _98  and  _101
REMARK   42  A    between atoms: _101  and  _102
REMARK   43  A    between atoms: _102  and  _103
REMARK   44  A    between atoms: _106  and  _108
REMARK   45  A    between atoms: _108  and  _109
REMARK   46  A    between atoms: _108  and  _111
REMARK   47  A    between atoms: _111  and  _112
REMARK   48  A    between atoms: _115  and  _117
REMARK   49  A    between atoms: _117  and  _118
REMARK   50  A    between atoms: _117  and  _120
REMARK   51  A    between atoms: _120  and  _121
REMARK   52  A    between atoms: _126  and  _127
REMARK   53  A    between atoms: _129  and  _131
REMARK   54  A    between atoms: _131  and  _132
REMARK   55  A    between atoms: _131  and  _134
REMARK   56  A    between atoms: _134  and  _135
REMARK   57  A    between atoms: _138  and  _140
REMARK   58  A    between atoms: _140  and  _141
REMARK   59  A    between atoms: _140  and  _143
REMARK   60  A    between atoms: _143  and  _144
REMARK   61  A    between atoms: _147  and  _149
REMARK   62  A    between atoms: _149  and  _150
REMARK   63  A    between atoms: _149  and  _152
REMARK   64  A    between atoms: _155  and  _157
REMARK   65  A    between atoms: _157  and  _158
REMARK   66  A    between atoms: _157  and  _160
REMARK   67  A    between atoms: _160  and  _161
REMARK   68  A    between atoms: _161  and  _162
REMARK   69  A    between atoms: _162  and  _163
REMARK   70  A    between atoms: _172  and  _174
REMARK   71  A    between atoms: _174  and  _175
REMARK   72  A    between atoms: _174  and  _177
REMARK   73  A    between atoms: _177  and  _178
REMARK   74  A    between atoms: _183  and  _185
REMARK   75  A    between atoms: _185  and  _186
REMARK   76  A    between atoms: _185  and  _188
REMARK   77  A    between atoms: _188  and  _189
REMARK   78  A    between atoms: _189  and  _190
REMARK   79  A    between atoms: _193  and  _195
REMARK   80  A    between atoms: _195  and  _196
REMARK   81  A    between atoms: _195  and  _198
REMARK   82  A    between atoms: _198  and  _199
REMARK   83  A    between atoms: _199  and  _200
REMARK   84  A    between atoms: _200  and  _201
REMARK   85  A    between atoms: _201  and  _202
REMARK   86  A    between atoms: _206  and  _208
REMARK   87  A    between atoms: _208  and  _209
REMARK   88  A    between atoms: _211  and  _213
REMARK   89  A    between atoms: _213  and  _214
REMARK   90  A    between atoms: _213  and  _216
REMARK   91  A    between atoms: _219  and  _221
REMARK   92  A    between atoms: _221  and  _222
REMARK   93  A    between atoms: _221  and  _224
REMARK   94  A    between atoms: _224  and  _225
REMARK   95  A    between atoms: _227  and  _229
REMARK   96  A    between atoms: _229  and  _230
REMARK   97  A    between atoms: _229  and  _232
REMARK   98  A    between atoms: _232  and  _233
REMARK   99  A    between atoms: _235  and  _237
REMARK  100  A    between atoms: _237  and  _238
REMARK  101  A    between atoms: _237  and  _240
REMARK  102  A    between atoms: _240  and  _241
REMARK  103  A    between atoms: _247  and  _249
REMARK  104  A    between atoms: _249  and  _250
REMARK  105  A    between atoms: _249  and  _252
REMARK  106  A    between atoms: _252  and  _253
REMARK  107  A    between atoms: _256  and  _258
REMARK  108  A    between atoms: _258  and  _259
REMARK  109  A    between atoms: _258  and  _261
REMARK  110  A    between atoms: _261  and  _262
REMARK  111  A    between atoms: _262  and  _263
REMARK  112  A    between atoms: _265  and  _267
REMARK  113  A    between atoms: _267  and  _268
REMARK  114  A    between atoms: _267  and  _270
REMARK  115  A    between atoms: _270  and  _271
REMARK  116  A    between atoms: _277  and  _279
REMARK  117  A    between atoms: _279  and  _280
REMARK  118  A    between atoms: _279  and  _282
REMARK  119  A    between atoms: _284  and  _286
REMARK  120  A    between atoms: _286  and  _287
REMARK  121  A    between atoms: _290  and  _292
REMARK  122  A    between atoms: _292  and  _293
REMARK  123  A    between atoms: _295  and  _297
REMARK  124  A    between atoms: _297  and  _298
REMARK  125  A    between atoms: _297  and  _300
REMARK  126  A    between atoms: _300  and  _301
REMARK  127  A    between atoms: _301  and  _302
REMARK  128  A    between atoms: _305  and  _307
REMARK  129  A    between atoms: _307  and  _308
REMARK  130  A    between atoms: _307  and  _310
REMARK  131  A    between atoms: _310  and  _311
REMARK  132  A    between atoms: _314  and  _316
REMARK  133  A    between atoms: _316  and  _317
REMARK  134  A    between atoms: _320  and  _322
REMARK  135  A    between atoms: _322  and  _323
REMARK  136  A    between atoms: _322  and  _325
REMARK  137  A    between atoms: _325  and  _326
REMARK  138  A    between atoms: _326  and  _449
REMARK  139  A    between atoms: _327  and  _329
REMARK  140  A    between atoms: _329  and  _330
REMARK  141  A    between atoms: _329  and  _332
REMARK  142  A    between atoms: _332  and  _333
REMARK  143  A    between atoms: _333  and  _334
REMARK  144  A    between atoms: _339  and  _341
REMARK  145  A    between atoms: _341  and  _342
REMARK  146  A    between atoms: _344  and  _346
REMARK  147  A    between atoms: _346  and  _347
REMARK  148  A    between atoms: _346  and  _349
REMARK  149  A    between atoms: _349  and  _350
REMARK  150  A    between atoms: _353  and  _355
REMARK  151  A    between atoms: _355  and  _356
REMARK  152  A    between atoms: _355  and  _358
REMARK  153  A    between atoms: _358  and  _359
REMARK  154  A    between atoms: _361  and  _363
REMARK  155  A    between atoms: _363  and  _364
REMARK  156  A    between atoms: _366  and  _368
REMARK  157  A    between atoms: _368  and  _369
REMARK  158  A    between atoms: _371  and  _373
REMARK  159  A    between atoms: _373  and  _374
REMARK  160  A    between atoms: _373  and  _376
REMARK  161  A    between atoms: _376  and  _377
REMARK  162  A    between atoms: _382  and  _384
REMARK  163  A    between atoms: _384  and  _385
REMARK  164  A    between atoms: _384  and  _387
REMARK  165  A    between atoms: _387  and  _388
REMARK  166  A    between atoms: _391  and  _393
REMARK  167  A    between atoms: _393  and  _394
REMARK  168  A    between atoms: _393  and  _396
REMARK  169  A    between atoms: _399  and  _401
REMARK  170  A    between atoms: _401  and  _402
REMARK  171  A    between atoms: _401  and  _404
REMARK  172  A    between atoms: _404  and  _405
REMARK  173  A    between atoms: _407  and  _409
REMARK  174  A    between atoms: _409  and  _410
REMARK  175  A    between atoms: _409  and  _412
REMARK  176  A    between atoms: _412  and  _413
REMARK  177  A    between atoms: _423  and  _425
REMARK  178  A    between atoms: _425  and  _426
REMARK  179  A    between atoms: _428  and  _430
REMARK  180  A    between atoms: _430  and  _431
REMARK  181  A    between atoms: _430  and  _433
REMARK  182  A    between atoms: _433  and  _434
REMARK  183  A    between atoms: _434  and  _435
REMARK  184  A    between atoms: _438  and  _440
REMARK  185  A    between atoms: _440  and  _441
REMARK  186  A    between atoms: _443  and  _445
REMARK  187  A    between atoms: _445  and  _446
REMARK  188  A    between atoms: _445  and  _448
REMARK  189  A    between atoms: _448  and  _449
REMARK  190  A    between atoms: _450  and  _452
REMARK  191  A    between atoms: _452  and  _453
REMARK  192  A    between atoms: _456  and  _458
REMARK  193  A    between atoms: _458  and  _459
REMARK  194  A    between atoms: _458  and  _461
REMARK  195  A    between atoms: _461  and  _462
REMARK  196  A    between atoms: _462  and  _463
REMARK  197  A    between atoms: _463  and  _464
REMARK  198  A    between atoms: _473  and  _475
REMARK  199  A    between atoms: _475  and  _476
REMARK  200  A    between atoms: _475  and  _478
REMARK  201  A    between atoms: _478  and  _479
REMARK  202  A    between atoms: _484  and  _485
REMARK  203  A    between atoms: _487  and  _489
REMARK  204  A    between atoms: _489  and  _490
REMARK  205  A    between atoms: _492  and  _494
REMARK  206  A    between atoms: _494  and  _495
REMARK  207  A    between atoms: _494  and  _497
REMARK  208  A    between atoms: _497  and  _498
REMARK  209  A    between atoms: _501  and  _503
REMARK  210  A    between atoms: _503  and  _504
REMARK  211  A    between atoms: _503  and  _506
REMARK  212  A    between atoms: _506  and  _507
REMARK  213  A    between atoms: _512  and  _513
REMARK  214  A    between atoms: _515  and  _517
REMARK  215  A    between atoms: _517  and  _518
REMARK  216  A    between atoms: _517  and  _520
REMARK  217  A    between atoms: _520  and  _521
REMARK                            x       y       z     vdW  Elec       q    Type
REMARK                         _______ _______ _______ _____ _____    ______ ____
ROOT
ATOM      1  O   HOH     1      10.066  -1.401  25.431  0.00  0.00    +0.000 OA
ENDROOT
TORSDOF 0
REMARK  Name = ../refined-set-2016/2boh/2boh_pocket.pdb
REMARK  217 active torsions:
REMARK  status: ('A' for Active; 'I' for Inactive)
REMARK    1  A    between atoms: _1  and  _5
REMARK    2  A    between atoms: _5  and  _6
REMARK    3  A    between atoms: _5  and  _8
REMARK    4  A    between atoms: _8  and  _9
REMARK    5  A    between atoms: _12  and  _14
REMARK    6  A    between atoms: _14  and  _15
REMARK    7  A    between atoms: _14  and  _17
REMARK    8  A    between atoms: _20  and  _22
REMARK    9  A    between atoms: _22  and  _23
REMARK   10  A    between atoms: _22  and  _25
REMARK   11  A    between atoms: _25  and  _26
REMARK   12  A    between atoms: _32  and  _34
REMARK   13  A    between atoms: _34  and  _35
REMARK   14  A    between atoms: _34  and  _37
REMARK   15  A    between atoms: _39  and  _41
REMARK   16  A    between atoms: _41  and  _42
REMARK   17  A    between atoms: _41  and  _44
REMARK   18  A    between atoms: _44  and  _45
REMARK   19  A    between atoms: _50  and  _52
REMARK   20  A    between atoms: _52  and  _53
REMARK   21  A    between atoms: _52  and  _55
REMARK   22  A    between atoms: _55  and  _56
REMARK   23  A    between atoms: _56  and  _57
REMARK   24  A    between atoms: _62  and  _64
REMARK   25  A    between atoms: _64  and  _65
REMARK   26  A    between atoms: _64  and  _67
REMARK   27  A    between atoms: _67  and  _68
REMARK   28  A    between atoms: _74  and  _76
REMARK   29  A    between atoms: _76  and  _77
REMARK   30  A    between atoms: _76  and  _79
REMARK   31  A    between atoms: _79  and  _80
REMARK   32  A    between atoms: _83  and  _85
REMARK   33  A    between atoms: _85  and  _86
REMARK   34  A    between atoms: _85  and  _88
REMARK   35  A    between atoms: _88  and  _89
REMARK   36  A    between atoms: _89  and  _90
REMARK   37  A    between atoms: _90  and  _91
REMARK   38  A    between atoms: _91  and  _92
REMARK   39  A    between atoms: _96  and  _98
REMARK   40  A    between atoms: _98  and  _99
REMARK   41  A    between atoms: _98  and  _101
REMARK   42  A    between atoms: _101  and  _102
REMARK   43  A    between atoms: _102  and  _103
REMARK   44  A    between atoms: _106  and  _108
REMARK   45  A    between atoms: _108  and  _109
REMARK   46  A    between atoms: _108  and  _111
REMARK   47  A    between atoms: _111  and  _112
REMARK   48  A    between atoms: _115  and  _117
REMARK   49  A    between atoms: _117  and  _118
REMARK   50  A    between atoms: _117  and  _120
REMARK   51  A    between atoms: _120  and  _121
REMARK   52  A    between atoms: _126  and  _127
REMARK   53  A    between atoms: _129  and  _131
REMARK   54  A    between atoms: _131  and  _132
REMARK   55  A    between atoms: _131  and  _134
REMARK   56  A    between atoms: _134  and  _135
REMARK   57  A    between atoms: _138  and  _140
REMARK   58  A    between atoms: _140  and  _141
REMARK   59  A    between atoms: _140  and  _143
REMARK   60  A    between atoms: _143  and  _144
REMARK   61  A    between atoms: _147  and  _149
REMARK   62  A    between atoms: _149  and  _150
REMARK   63  A    between atoms: _149  and  _152
REMARK   64  A    between atoms: _155  and  _157
REMARK   65  A    between atoms: _157  and  _158
REMARK   66  A    between atoms: _157  and  _160
REMARK   67  A    between atoms: _160  and  _161
REMARK   68  A    between atoms: _161  and  _162
REMARK   69  A    between atoms: _162  and  _163
REMARK   70  A    between atoms: _172  and  _174
REMARK   71  A    between atoms: _174  and  _175
REMARK   72  A    between atoms: _174  and  _177
REMARK   73  A    between atoms: _177  and  _178
REMARK   74  A    between atoms: _183  and  _185
REMARK   75  A    between atoms: _185  and  _186
REMARK   76  A    between atoms: _185  and  _188
REMARK   77  A    between atoms: _188  and  _189
REMARK   78  A    between atoms: _189  and  _190
REMARK   79  A    between atoms: _193  and  _195
REMARK   80  A    between atoms: _195  and  _196
REMARK   81  A    between atoms: _195  and  _198
REMARK   82  A    between atoms: _198  and  _199
REMARK   83  A    between atoms: _199  and  _200
REMARK   84  A    between atoms: _200  and  _201
REMARK   85  A    between atoms: _201  and  _202
REMARK   86  A    between atoms: _206  and  _208
REMARK   87  A    between atoms: _208  and  _209
REMARK   88  A    between atoms: _211  and  _213
REMARK   89  A    between atoms: _213  and  _214
REMARK   90  A    between atoms: _213  and  _216
REMARK   91  A    between atoms: _219  and  _221
REMARK   92  A    between atoms: _221  and  _222
REMARK   93  A    between atoms: _221  and  _224
REMARK   94  A    between atoms: _224  and  _225
REMARK   95  A    between atoms: _227  and  _229
REMARK   96  A    between atoms: _229  and  _230
REMARK   97  A    between atoms: _229  and  _232
REMARK   98  A    between atoms: _232  and  _233
REMARK   99  A    between atoms: _235  and  _237
REMARK  100  A    between atoms: _237  and  _238
REMARK  101  A    between atoms: _237  and  _240
REMARK  102  A    between atoms: _240  and  _241
REMARK  103  A    between atoms: _247  and  _249
REMARK  104  A    between atoms: _249  and  _250
REMARK  105  A    between atoms: _249  and  _252
REMARK  106  A    between atoms: _252  and  _253
REMARK  107  A    between atoms: _256  and  _258
REMARK  108  A    between atoms: _258  and  _259
REMARK  109  A    between atoms: _258  and  _261
REMARK  110  A    between atoms: _261  and  _262
REMARK  111  A    between atoms: _262  and  _263
REMARK  112  A    between atoms: _265  and  _267
REMARK  113  A    between atoms: _267  and  _268
REMARK  114  A    between atoms: _267  and  _270
REMARK  115  A    between atoms: _270  and  _271
REMARK  116  A    between atoms: _277  and  _279
REMARK  117  A    between atoms: _279  and  _280
REMARK  118  A    between atoms: _279  and  _282
REMARK  119  A    between atoms: _284  and  _286
REMARK  120  A    between atoms: _286  and  _287
REMARK  121  A    between atoms: _290  and  _292
REMARK  122  A    between atoms: _292  and  _293
REMARK  123  A    between atoms: _295  and  _297
REMARK  124  A    between atoms: _297  and  _298
REMARK  125  A    between atoms: _297  and  _300
REMARK  126  A    between atoms: _300  and  _301
REMARK  127  A    between atoms: _301  and  _302
REMARK  128  A    between atoms: _305  and  _307
REMARK  129  A    between atoms: _307  and  _308
REMARK  130  A    between atoms: _307  and  _310
REMARK  131  A    between atoms: _310  and  _311
REMARK  132  A    between atoms: _314  and  _316
REMARK  133  A    between atoms: _316  and  _317
REMARK  134  A    between atoms: _320  and  _322
REMARK  135  A    between atoms: _322  and  _323
REMARK  136  A    between atoms: _322  and  _325
REMARK  137  A    between atoms: _325  and  _326
REMARK  138  A    between atoms: _326  and  _449
REMARK  139  A    between atoms: _327  and  _329
REMARK  140  A    between atoms: _329  and  _330
REMARK  141  A    between atoms: _329  and  _332
REMARK  142  A    between atoms: _332  and  _333
REMARK  143  A    between atoms: _333  and  _334
REMARK  144  A    between atoms: _339  and  _341
REMARK  145  A    between atoms: _341  and  _342
REMARK  146  A    between atoms: _344  and  _346
REMARK  147  A    between atoms: _346  and  _347
REMARK  148  A    between atoms: _346  and  _349
REMARK  149  A    between atoms: _349  and  _350
REMARK  150  A    between atoms: _353  and  _355
REMARK  151  A    between atoms: _355  and  _356
REMARK  152  A    between atoms: _355  and  _358
REMARK  153  A    between atoms: _358  and  _359
REMARK  154  A    between atoms: _361  and  _363
REMARK  155  A    between atoms: _363  and  _364
REMARK  156  A    between atoms: _366  and  _368
REMARK  157  A    between atoms: _368  and  _369
REMARK  158  A    between atoms: _371  and  _373
REMARK  159  A    between atoms: _373  and  _374
REMARK  160  A    between atoms: _373  and  _376
REMARK  161  A    between atoms: _376  and  _377
REMARK  162  A    between atoms: _382  and  _384
REMARK  163  A    between atoms: _384  and  _385
REMARK  164  A    between atoms: _384  and  _387
REMARK  165  A    between atoms: _387  and  _388
REMARK  166  A    between atoms: _391  and  _393
REMARK  167  A    between atoms: _393  and  _394
REMARK  168  A    between atoms: _393  and  _396
REMARK  169  A    between atoms: _399  and  _401
REMARK  170  A    between atoms: _401  and  _402
REMARK  171  A    between atoms: _401  and  _404
REMARK  172  A    between atoms: _404  and  _405
REMARK  173  A    between atoms: _407  and  _409
REMARK  174  A    between atoms: _409  and  _410
REMARK  175  A    between atoms: _409  and  _412
REMARK  176  A    between atoms: _412  and  _413
REMARK  177  A    between atoms: _423  and  _425
REMARK  178  A    between atoms: _425  and  _426
REMARK  179  A    between atoms: _428  and  _430
REMARK  180  A    between atoms: _430  and  _431
REMARK  181  A    between atoms: _430  and  _433
REMARK  182  A    between atoms: _433  and  _434
REMARK  183  A    between atoms: _434  and  _435
REMARK  184  A    between atoms: _438  and  _440
REMARK  185  A    between atoms: _440  and  _441
REMARK  186  A    between atoms: _443  and  _445
REMARK  187  A    between atoms: _445  and  _446
REMARK  188  A    between atoms: _445  and  _448
REMARK  189  A    between atoms: _448  and  _449
REMARK  190  A    between atoms: _450  and  _452
REMARK  191  A    between atoms: _452  and  _453
REMARK  192  A    between atoms: _456  and  _458
REMARK  193  A    between atoms: _458  and  _459
REMARK  194  A    between atoms: _458  and  _461
REMARK  195  A    between atoms: _461  and  _462
REMARK  196  A    between atoms: _462  and  _463
REMARK  197  A    between atoms: _463  and  _464
REMARK  198  A    between atoms: _473  and  _475
REMARK  199  A    between atoms: _475  and  _476
REMARK  200  A    between atoms: _475  and  _478
REMARK  201  A    between atoms: _478  and  _479
REMARK  202  A    between atoms: _484  and  _485
REMARK  203  A    between atoms: _487  and  _489
REMARK  204  A    between atoms: _489  and  _490
REMARK  205  A    between atoms: _492  and  _494
REMARK  206  A    between atoms: _494  and  _495
REMARK  207  A    between atoms: _494  and  _497
REMARK  208  A    between atoms: _497  and  _498
REMARK  209  A    between atoms: _501  and  _503
REMARK  210  A    between atoms: _503  and  _504
REMARK  211  A    between atoms: _503  and  _506
REMARK  212  A    between atoms: _506  and  _507
REMARK  213  A    between atoms: _512  and  _513
REMARK  214  A    between atoms: _515  and  _517
REMARK  215  A    between atoms: _517  and  _518
REMARK  216  A    between atoms: _517  and  _520
REMARK  217  A    between atoms: _520  and  _521
REMARK                            x       y       z     vdW  Elec       q    Type
REMARK                         _______ _______ _______ _____ _____    ______ ____
ROOT
ATOM      1  O   HOH     1       1.648   1.966  24.421  0.00  0.00    +0.000 OA
ENDROOT
TORSDOF 0
REMARK  Name = ../refined-set-2016/2boh/2boh_pocket.pdb
REMARK  217 active torsions:
REMARK  status: ('A' for Active; 'I' for Inactive)
REMARK    1  A    between atoms: _1  and  _5
REMARK    2  A    between atoms: _5  and  _6
REMARK    3  A    between atoms: _5  and  _8
REMARK    4  A    between atoms: _8  and  _9
REMARK    5  A    between atoms: _12  and  _14
REMARK    6  A    between atoms: _14  and  _15
REMARK    7  A    between atoms: _14  and  _17
REMARK    8  A    between atoms: _20  and  _22
REMARK    9  A    between atoms: _22  and  _23
REMARK   10  A    between atoms: _22  and  _25
REMARK   11  A    between atoms: _25  and  _26
REMARK   12  A    between atoms: _32  and  _34
REMARK   13  A    between atoms: _34  and  _35
REMARK   14  A    between atoms: _34  and  _37
REMARK   15  A    between atoms: _39  and  _41
REMARK   16  A    between atoms: _41  and  _42
REMARK   17  A    between atoms: _41  and  _44
REMARK   18  A    between atoms: _44  and  _45
REMARK   19  A    between atoms: _50  and  _52
REMARK   20  A    between atoms: _52  and  _53
REMARK   21  A    between atoms: _52  and  _55
REMARK   22  A    between atoms: _55  and  _56
REMARK   23  A    between atoms: _56  and  _57
REMARK   24  A    between atoms: _62  and  _64
REMARK   25  A    between atoms: _64  and  _65
REMARK   26  A    between atoms: _64  and  _67
REMARK   27  A    between atoms: _67  and  _68
REMARK   28  A    between atoms: _74  and  _76
REMARK   29  A    between atoms: _76  and  _77
REMARK   30  A    between atoms: _76  and  _79
REMARK   31  A    between atoms: _79  and  _80
REMARK   32  A    between atoms: _83  and  _85
REMARK   33  A    between atoms: _85  and  _86
REMARK   34  A    between atoms: _85  and  _88
REMARK   35  A    between atoms: _88  and  _89
REMARK   36  A    between atoms: _89  and  _90
REMARK   37  A    between atoms: _90  and  _91
REMARK   38  A    between atoms: _91  and  _92
REMARK   39  A    between atoms: _96  and  _98
REMARK   40  A    between atoms: _98  and  _99
REMARK   41  A    between atoms: _98  and  _101
REMARK   42  A    between atoms: _101  and  _102
REMARK   43  A    between atoms: _102  and  _103
REMARK   44  A    between atoms: _106  and  _108
REMARK   45  A    between atoms: _108  and  _109
REMARK   46  A    between atoms: _108  and  _111
REMARK   47  A    between atoms: _111  and  _112
REMARK   48  A    between atoms: _115  and  _117
REMARK   49  A    between atoms: _117  and  _118
REMARK   50  A    between atoms: _117  and  _120
REMARK   51  A    between atoms: _120  and  _121
REMARK   52  A    between atoms: _126  and  _127
REMARK   53  A    between atoms: _129  and  _131
REMARK   54  A    between atoms: _131  and  _132
REMARK   55  A    between atoms: _131  and  _134
REMARK   56  A    between atoms: _134  and  _135
REMARK   57  A    between atoms: _138  and  _140
REMARK   58  A    between atoms: _140  and  _141
REMARK   59  A    between atoms: _140  and  _143
REMARK   60  A    between atoms: _143  and  _144
REMARK   61  A    between atoms: _147  and  _149
REMARK   62  A    between atoms: _149  and  _150
REMARK   63  A    between atoms: _149  and  _152
REMARK   64  A    between atoms: _155  and  _157
REMARK   65  A    between atoms: _157  and  _158
REMARK   66  A    between atoms: _157  and  _160
REMARK   67  A    between atoms: _160  and  _161
REMARK   68  A    between atoms: _161  and  _162
REMARK   69  A    between atoms: _162  and  _163
REMARK   70  A    between atoms: _172  and  _174
REMARK   71  A    between atoms: _174  and  _175
REMARK   72  A    between atoms: _174  and  _177
REMARK   73  A    between atoms: _177  and  _178
REMARK   74  A    between atoms: _183  and  _185
REMARK   75  A    between atoms: _185  and  _186
REMARK   76  A    between atoms: _185  and  _188
REMARK   77  A    between atoms: _188  and  _189
REMARK   78  A    between atoms: _189  and  _190
REMARK   79  A    between atoms: _193  and  _195
REMARK   80  A    between atoms: _195  and  _196
REMARK   81  A    between atoms: _195  and  _198
REMARK   82  A    between atoms: _198  and  _199
REMARK   83  A    between atoms: _199  and  _200
REMARK   84  A    between atoms: _200  and  _201
REMARK   85  A    between atoms: _201  and  _202
REMARK   86  A    between atoms: _206  and  _208
REMARK   87  A    between atoms: _208  and  _209
REMARK   88  A    between atoms: _211  and  _213
REMARK   89  A    between atoms: _213  and  _214
REMARK   90  A    between atoms: _213  and  _216
REMARK   91  A    between atoms: _219  and  _221
REMARK   92  A    between atoms: _221  and  _222
REMARK   93  A    between atoms: _221  and  _224
REMARK   94  A    between atoms: _224  and  _225
REMARK   95  A    between atoms: _227  and  _229
REMARK   96  A    between atoms: _229  and  _230
REMARK   97  A    between atoms: _229  and  _232
REMARK   98  A    between atoms: _232  and  _233
REMARK   99  A    between atoms: _235  and  _237
REMARK  100  A    between atoms: _237  and  _238
REMARK  101  A    between atoms: _237  and  _240
REMARK  102  A    between atoms: _240  and  _241
REMARK  103  A    between atoms: _247  and  _249
REMARK  104  A    between atoms: _249  and  _250
REMARK  105  A    between atoms: _249  and  _252
REMARK  106  A    between atoms: _252  and  _253
REMARK  107  A    between atoms: _256  and  _258
REMARK  108  A    between atoms: _258  and  _259
REMARK  109  A    between atoms: _258  and  _261
REMARK  110  A    between atoms: _261  and  _262
REMARK  111  A    between atoms: _262  and  _263
REMARK  112  A    between atoms: _265  and  _267
REMARK  113  A    between atoms: _267  and  _268
REMARK  114  A    between atoms: _267  and  _270
REMARK  115  A    between atoms: _270  and  _271
REMARK  116  A    between atoms: _277  and  _279
REMARK  117  A    between atoms: _279  and  _280
REMARK  118  A    between atoms: _279  and  _282
REMARK  119  A    between atoms: _284  and  _286
REMARK  120  A    between atoms: _286  and  _287
REMARK  121  A    between atoms: _290  and  _292
REMARK  122  A    between atoms: _292  and  _293
REMARK  123  A    between atoms: _295  and  _297
REMARK  124  A    between atoms: _297  and  _298
REMARK  125  A    between atoms: _297  and  _300
REMARK  126  A    between atoms: _300  and  _301
REMARK  127  A    between atoms: _301  and  _302
REMARK  128  A    between atoms: _305  and  _307
REMARK  129  A    between atoms: _307  and  _308
REMARK  130  A    between atoms: _307  and  _310
REMARK  131  A    between atoms: _310  and  _311
REMARK  132  A    between atoms: _314  and  _316
REMARK  133  A    between atoms: _316  and  _317
REMARK  134  A    between atoms: _320  and  _322
REMARK  135  A    between atoms: _322  and  _323
REMARK  136  A    between atoms: _322  and  _325
REMARK  137  A    between atoms: _325  and  _326
REMARK  138  A    between atoms: _326  and  _449
REMARK  139  A    between atoms: _327  and  _329
REMARK  140  A    between atoms: _329  and  _330
REMARK  141  A    between atoms: _329  and  _332
REMARK  142  A    between atoms: _332  and  _333
REMARK  143  A    between atoms: _333  and  _334
REMARK  144  A    between atoms: _339  and  _341
REMARK  145  A    between atoms: _341  and  _342
REMARK  146  A    between atoms: _344  and  _346
REMARK  147  A    between atoms: _346  and  _347
REMARK  148  A    between atoms: _346  and  _349
REMARK  149  A    between atoms: _349  and  _350
REMARK  150  A    between atoms: _353  and  _355
REMARK  151  A    between atoms: _355  and  _356
REMARK  152  A    between atoms: _355  and  _358
REMARK  153  A    between atoms: _358  and  _359
REMARK  154  A    between atoms: _361  and  _363
REMARK  155  A    between atoms: _363  and  _364
REMARK  156  A    between atoms: _366  and  _368
REMARK  157  A    between atoms: _368  and  _369
REMARK  158  A    between atoms: _371  and  _373
REMARK  159  A    between atoms: _373  and  _374
REMARK  160  A    between atoms: _373  and  _376
REMARK  161  A    between atoms: _376  and  _377
REMARK  162  A    between atoms: _382  and  _384
REMARK  163  A    between atoms: _384  and  _385
REMARK  164  A    between atoms: _384  and  _387
REMARK  165  A    between atoms: _387  and  _388
REMARK  166  A    between atoms: _391  and  _393
REMARK  167  A    between atoms: _393  and  _394
REMARK  168  A    between atoms: _393  and  _396
REMARK  169  A    between atoms: _399  and  _401
REMARK  170  A    between atoms: _401  and  _402
REMARK  171  A    between atoms: _401  and  _404
REMARK  172  A    between atoms: _404  and  _405
REMARK  173  A    between atoms: _407  and  _409
REMARK  174  A    between atoms: _409  and  _410
REMARK  175  A    between atoms: _409  and  _412
REMARK  176  A    between atoms: _412  and  _413
REMARK  177  A    between atoms: _423  and  _425
REMARK  178  A    between atoms: _425  and  _426
REMARK  179  A    between atoms: _428  and  _430
REMARK  180  A    between atoms: _430  and  _431
REMARK  181  A    between atoms: _430  and  _433
REMARK  182  A    between atoms: _433  and  _434
REMARK  183  A    between atoms: _434  and  _435
REMARK  184  A    between atoms: _438  and  _440
REMARK  185  A    between atoms: _440  and  _441
REMARK  186  A    between atoms: _443  and  _445
REMARK  187  A    between atoms: _445  and  _446
REMARK  188  A    between atoms: _445  and  _448
REMARK  189  A    between atoms: _448  and  _449
REMARK  190  A    between atoms: _450  and  _452
REMARK  191  A    between atoms: _452  and  _453
REMARK  192  A    between atoms: _456  and  _458
REMARK  193  A    between atoms: _458  and  _459
REMARK  194  A    between atoms: _458  and  _461
REMARK  195  A    between atoms: _461  and  _462
REMARK  196  A    between atoms: _462  and  _463
REMARK  197  A    between atoms: _463  and  _464
REMARK  198  A    between atoms: _473  and  _475
REMARK  199  A    between atoms: _475  and  _476
REMARK  200  A    between atoms: _475  and  _478
REMARK  201  A    between atoms: _478  and  _479
REMARK  202  A    between atoms: _484  and  _485
REMARK  203  A    between atoms: _487  and  _489
REMARK  204  A    between atoms: _489  and  _490
REMARK  205  A    between atoms: _492  and  _494
REMARK  206  A    between atoms: _494  and  _495
REMARK  207  A    between atoms: _494  and  _497
REMARK  208  A    between atoms: _497  and  _498
REMARK  209  A    between atoms: _501  and  _503
REMARK  210  A    between atoms: _503  and  _504
REMARK  211  A    between atoms: _503  and  _506
REMARK  212  A    between atoms: _506  and  _507
REMARK  213  A    between atoms: _512  and  _513
REMARK  214  A    between atoms: _515  and  _517
REMARK  215  A    between atoms: _517  and  _518
REMARK  216  A    between atoms: _517  and  _520
REMARK  217  A    between atoms: _520  and  _521
REMARK                            x       y       z     vdW  Elec       q    Type
REMARK                         _______ _______ _______ _____ _____    ______ ____
ROOT
ATOM      1  O   HOH     1       2.815  -1.030  27.774  0.00  0.00    +0.000 OA
ENDROOT
TORSDOF 0
REMARK  Name = ../refined-set-2016/2boh/2boh_pocket.pdb
REMARK  217 active torsions:
REMARK  status: ('A' for Active; 'I' for Inactive)
REMARK    1  A    between atoms: _1  and  _5
REMARK    2  A    between atoms: _5  and  _6
REMARK    3  A    between atoms: _5  and  _8
REMARK    4  A    between atoms: _8  and  _9
REMARK    5  A    between atoms: _12  and  _14
REMARK    6  A    between atoms: _14  and  _15
REMARK    7  A    between atoms: _14  and  _17
REMARK    8  A    between atoms: _20  and  _22
REMARK    9  A    between atoms: _22  and  _23
REMARK   10  A    between atoms: _22  and  _25
REMARK   11  A    between atoms: _25  and  _26
REMARK   12  A    between atoms: _32  and  _34
REMARK   13  A    between atoms: _34  and  _35
REMARK   14  A    between atoms: _34  and  _37
REMARK   15  A    between atoms: _39  and  _41
REMARK   16  A    between atoms: _41  and  _42
REMARK   17  A    between atoms: _41  and  _44
REMARK   18  A    between atoms: _44  and  _45
REMARK   19  A    between atoms: _50  and  _52
REMARK   20  A    between atoms: _52  and  _53
REMARK   21  A    between atoms: _52  and  _55
REMARK   22  A    between atoms: _55  and  _56
REMARK   23  A    between atoms: _56  and  _57
REMARK   24  A    between atoms: _62  and  _64
REMARK   25  A    between atoms: _64  and  _65
REMARK   26  A    between atoms: _64  and  _67
REMARK   27  A    between atoms: _67  and  _68
REMARK   28  A    between atoms: _74  and  _76
REMARK   29  A    between atoms: _76  and  _77
REMARK   30  A    between atoms: _76  and  _79
REMARK   31  A    between atoms: _79  and  _80
REMARK   32  A    between atoms: _83  and  _85
REMARK   33  A    between atoms: _85  and  _86
REMARK   34  A    between atoms: _85  and  _88
REMARK   35  A    between atoms: _88  and  _89
REMARK   36  A    between atoms: _89  and  _90
REMARK   37  A    between atoms: _90  and  _91
REMARK   38  A    between atoms: _91  and  _92
REMARK   39  A    between atoms: _96  and  _98
REMARK   40  A    between atoms: _98  and  _99
REMARK   41  A    between atoms: _98  and  _101
REMARK   42  A    between atoms: _101  and  _102
REMARK   43  A    between atoms: _102  and  _103
REMARK   44  A    between atoms: _106  and  _108
REMARK   45  A    between atoms: _108  and  _109
REMARK   46  A    between atoms: _108  and  _111
REMARK   47  A    between atoms: _111  and  _112
REMARK   48  A    between atoms: _115  and  _117
REMARK   49  A    between atoms: _117  and  _118
REMARK   50  A    between atoms: _117  and  _120
REMARK   51  A    between atoms: _120  and  _121
REMARK   52  A    between atoms: _126  and  _127
REMARK   53  A    between atoms: _129  and  _131
REMARK   54  A    between atoms: _131  and  _132
REMARK   55  A    between atoms: _131  and  _134
REMARK   56  A    between atoms: _134  and  _135
REMARK   57  A    between atoms: _138  and  _140
REMARK   58  A    between atoms: _140  and  _141
REMARK   59  A    between atoms: _140  and  _143
REMARK   60  A    between atoms: _143  and  _144
REMARK   61  A    between atoms: _147  and  _149
REMARK   62  A    between atoms: _149  and  _150
REMARK   63  A    between atoms: _149  and  _152
REMARK   64  A    between atoms: _155  and  _157
REMARK   65  A    between atoms: _157  and  _158
REMARK   66  A    between atoms: _157  and  _160
REMARK   67  A    between atoms: _160  and  _161
REMARK   68  A    between atoms: _161  and  _162
REMARK   69  A    between atoms: _162  and  _163
REMARK   70  A    between atoms: _172  and  _174
REMARK   71  A    between atoms: _174  and  _175
REMARK   72  A    between atoms: _174  and  _177
REMARK   73  A    between atoms: _177  and  _178
REMARK   74  A    between atoms: _183  and  _185
REMARK   75  A    between atoms: _185  and  _186
REMARK   76  A    between atoms: _185  and  _188
REMARK   77  A    between atoms: _188  and  _189
REMARK   78  A    between atoms: _189  and  _190
REMARK   79  A    between atoms: _193  and  _195
REMARK   80  A    between atoms: _195  and  _196
REMARK   81  A    between atoms: _195  and  _198
REMARK   82  A    between atoms: _198  and  _199
REMARK   83  A    between atoms: _199  and  _200
REMARK   84  A    between atoms: _200  and  _201
REMARK   85  A    between atoms: _201  and  _202
REMARK   86  A    between atoms: _206  and  _208
REMARK   87  A    between atoms: _208  and  _209
REMARK   88  A    between atoms: _211  and  _213
REMARK   89  A    between atoms: _213  and  _214
REMARK   90  A    between atoms: _213  and  _216
REMARK   91  A    between atoms: _219  and  _221
REMARK   92  A    between atoms: _221  and  _222
REMARK   93  A    between atoms: _221  and  _224
REMARK   94  A    between atoms: _224  and  _225
REMARK   95  A    between atoms: _227  and  _229
REMARK   96  A    between atoms: _229  and  _230
REMARK   97  A    between atoms: _229  and  _232
REMARK   98  A    between atoms: _232  and  _233
REMARK   99  A    between atoms: _235  and  _237
REMARK  100  A    between atoms: _237  and  _238
REMARK  101  A    between atoms: _237  and  _240
REMARK  102  A    between atoms: _240  and  _241
REMARK  103  A    between atoms: _247  and  _249
REMARK  104  A    between atoms: _249  and  _250
REMARK  105  A    between atoms: _249  and  _252
REMARK  106  A    between atoms: _252  and  _253
REMARK  107  A    between atoms: _256  and  _258
REMARK  108  A    between atoms: _258  and  _259
REMARK  109  A    between atoms: _258  and  _261
REMARK  110  A    between atoms: _261  and  _262
REMARK  111  A    between atoms: _262  and  _263
REMARK  112  A    between atoms: _265  and  _267
REMARK  113  A    between atoms: _267  and  _268
REMARK  114  A    between atoms: _267  and  _270
REMARK  115  A    between atoms: _270  and  _271
REMARK  116  A    between atoms: _277  and  _279
REMARK  117  A    between atoms: _279  and  _280
REMARK  118  A    between atoms: _279  and  _282
REMARK  119  A    between atoms: _284  and  _286
REMARK  120  A    between atoms: _286  and  _287
REMARK  121  A    between atoms: _290  and  _292
REMARK  122  A    between atoms: _292  and  _293
REMARK  123  A    between atoms: _295  and  _297
REMARK  124  A    between atoms: _297  and  _298
REMARK  125  A    between atoms: _297  and  _300
REMARK  126  A    between atoms: _300  and  _301
REMARK  127  A    between atoms: _301  and  _302
REMARK  128  A    between atoms: _305  and  _307
REMARK  129  A    between atoms: _307  and  _308
REMARK  130  A    between atoms: _307  and  _310
REMARK  131  A    between atoms: _310  and  _311
REMARK  132  A    between atoms: _314  and  _316
REMARK  133  A    between atoms: _316  and  _317
REMARK  134  A    between atoms: _320  and  _322
REMARK  135  A    between atoms: _322  and  _323
REMARK  136  A    between atoms: _322  and  _325
REMARK  137  A    between atoms: _325  and  _326
REMARK  138  A    between atoms: _326  and  _449
REMARK  139  A    between atoms: _327  and  _329
REMARK  140  A    between atoms: _329  and  _330
REMARK  141  A    between atoms: _329  and  _332
REMARK  142  A    between atoms: _332  and  _333
REMARK  143  A    between atoms: _333  and  _334
REMARK  144  A    between atoms: _339  and  _341
REMARK  145  A    between atoms: _341  and  _342
REMARK  146  A    between atoms: _344  and  _346
REMARK  147  A    between atoms: _346  and  _347
REMARK  148  A    between atoms: _346  and  _349
REMARK  149  A    between atoms: _349  and  _350
REMARK  150  A    between atoms: _353  and  _355
REMARK  151  A    between atoms: _355  and  _356
REMARK  152  A    between atoms: _355  and  _358
REMARK  153  A    between atoms: _358  and  _359
REMARK  154  A    between atoms: _361  and  _363
REMARK  155  A    between atoms: _363  and  _364
REMARK  156  A    between atoms: _366  and  _368
REMARK  157  A    between atoms: _368  and  _369
REMARK  158  A    between atoms: _371  and  _373
REMARK  159  A    between atoms: _373  and  _374
REMARK  160  A    between atoms: _373  and  _376
REMARK  161  A    between atoms: _376  and  _377
REMARK  162  A    between atoms: _382  and  _384
REMARK  163  A    between atoms: _384  and  _385
REMARK  164  A    between atoms: _384  and  _387
REMARK  165  A    between atoms: _387  and  _388
REMARK  166  A    between atoms: _391  and  _393
REMARK  167  A    between atoms: _393  and  _394
REMARK  168  A    between atoms: _393  and  _396
REMARK  169  A    between atoms: _399  and  _401
REMARK  170  A    between atoms: _401  and  _402
REMARK  171  A    between atoms: _401  and  _404
REMARK  172  A    between atoms: _404  and  _405
REMARK  173  A    between atoms: _407  and  _409
REMARK  174  A    between atoms: _409  and  _410
REMARK  175  A    between atoms: _409  and  _412
REMARK  176  A    between atoms: _412  and  _413
REMARK  177  A    between atoms: _423  and  _425
REMARK  178  A    between atoms: _425  and  _426
REMARK  179  A    between atoms: _428  and  _430
REMARK  180  A    between atoms: _430  and  _431
REMARK  181  A    between atoms: _430  and  _433
REMARK  182  A    between atoms: _433  and  _434
REMARK  183  A    between atoms: _434  and  _435
REMARK  184  A    between atoms: _438  and  _440
REMARK  185  A    between atoms: _440  and  _441
REMARK  186  A    between atoms: _443  and  _445
REMARK  187  A    between atoms: _445  and  _446
REMARK  188  A    between atoms: _445  and  _448
REMARK  189  A    between atoms: _448  and  _449
REMARK  190  A    between atoms: _450  and  _452
REMARK  191  A    between atoms: _452  and  _453
REMARK  192  A    between atoms: _456  and  _458
REMARK  193  A    between atoms: _458  and  _459
REMARK  194  A    between atoms: _458  and  _461
REMARK  195  A    between atoms: _461  and  _462
REMARK  196  A    between atoms: _462  and  _463
REMARK  197  A    between atoms: _463  and  _464
REMARK  198  A    between atoms: _473  and  _475
REMARK  199  A    between atoms: _475  and  _476
REMARK  200  A    between atoms: _475  and  _478
REMARK  201  A    between atoms: _478  and  _479
REMARK  202  A    between atoms: _484  and  _485
REMARK  203  A    between atoms: _487  and  _489
REMARK  204  A    between atoms: _489  and  _490
REMARK  205  A    between atoms: _492  and  _494
REMARK  206  A    between atoms: _494  and  _495
REMARK  207  A    between atoms: _494  and  _497
REMARK  208  A    between atoms: _497  and  _498
REMARK  209  A    between atoms: _501  and  _503
REMARK  210  A    between atoms: _503  and  _504
REMARK  211  A    between atoms: _503  and  _506
REMARK  212  A    between atoms: _506  and  _507
REMARK  213  A    between atoms: _512  and  _513
REMARK  214  A    between atoms: _515  and  _517
REMARK  215  A    between atoms: _517  and  _518
REMARK  216  A    between atoms: _517  and  _520
REMARK  217  A    between atoms: _520  and  _521
REMARK                            x       y       z     vdW  Elec       q    Type
REMARK                         _______ _______ _______ _____ _____    ______ ____
ROOT
ATOM      1  O   HOH     1      10.068   3.613  32.413  0.00  0.00    +0.000 OA
ENDROOT
TORSDOF 0
REMARK  Name = ../refined-set-2016/2boh/2boh_pocket.pdb
REMARK  217 active torsions:
REMARK  status: ('A' for Active; 'I' for Inactive)
REMARK    1  A    between atoms: _1  and  _5
REMARK    2  A    between atoms: _5  and  _6
REMARK    3  A    between atoms: _5  and  _8
REMARK    4  A    between atoms: _8  and  _9
REMARK    5  A    between atoms: _12  and  _14
REMARK    6  A    between atoms: _14  and  _15
REMARK    7  A    between atoms: _14  and  _17
REMARK    8  A    between atoms: _20  and  _22
REMARK    9  A    between atoms: _22  and  _23
REMARK   10  A    between atoms: _22  and  _25
REMARK   11  A    between atoms: _25  and  _26
REMARK   12  A    between atoms: _32  and  _34
REMARK   13  A    between atoms: _34  and  _35
REMARK   14  A    between atoms: _34  and  _37
REMARK   15  A    between atoms: _39  and  _41
REMARK   16  A    between atoms: _41  and  _42
REMARK   17  A    between atoms: _41  and  _44
REMARK   18  A    between atoms: _44  and  _45
REMARK   19  A    between atoms: _50  and  _52
REMARK   20  A    between atoms: _52  and  _53
REMARK   21  A    between atoms: _52  and  _55
REMARK   22  A    between atoms: _55  and  _56
REMARK   23  A    between atoms: _56  and  _57
REMARK   24  A    between atoms: _62  and  _64
REMARK   25  A    between atoms: _64  and  _65
REMARK   26  A    between atoms: _64  and  _67
REMARK   27  A    between atoms: _67  and  _68
REMARK   28  A    between atoms: _74  and  _76
REMARK   29  A    between atoms: _76  and  _77
REMARK   30  A    between atoms: _76  and  _79
REMARK   31  A    between atoms: _79  and  _80
REMARK   32  A    between atoms: _83  and  _85
REMARK   33  A    between atoms: _85  and  _86
REMARK   34  A    between atoms: _85  and  _88
REMARK   35  A    between atoms: _88  and  _89
REMARK   36  A    between atoms: _89  and  _90
REMARK   37  A    between atoms: _90  and  _91
REMARK   38  A    between atoms: _91  and  _92
REMARK   39  A    between atoms: _96  and  _98
REMARK   40  A    between atoms: _98  and  _99
REMARK   41  A    between atoms: _98  and  _101
REMARK   42  A    between atoms: _101  and  _102
REMARK   43  A    between atoms: _102  and  _103
REMARK   44  A    between atoms: _106  and  _108
REMARK   45  A    between atoms: _108  and  _109
REMARK   46  A    between atoms: _108  and  _111
REMARK   47  A    between atoms: _111  and  _112
REMARK   48  A    between atoms: _115  and  _117
REMARK   49  A    between atoms: _117  and  _118
REMARK   50  A    between atoms: _117  and  _120
REMARK   51  A    between atoms: _120  and  _121
REMARK   52  A    between atoms: _126  and  _127
REMARK   53  A    between atoms: _129  and  _131
REMARK   54  A    between atoms: _131  and  _132
REMARK   55  A    between atoms: _131  and  _134
REMARK   56  A    between atoms: _134  and  _135
REMARK   57  A    between atoms: _138  and  _140
REMARK   58  A    between atoms: _140  and  _141
REMARK   59  A    between atoms: _140  and  _143
REMARK   60  A    between atoms: _143  and  _144
REMARK   61  A    between atoms: _147  and  _149
REMARK   62  A    between atoms: _149  and  _150
REMARK   63  A    between atoms: _149  and  _152
REMARK   64  A    between atoms: _155  and  _157
REMARK   65  A    between atoms: _157  and  _158
REMARK   66  A    between atoms: _157  and  _160
REMARK   67  A    between atoms: _160  and  _161
REMARK   68  A    between atoms: _161  and  _162
REMARK   69  A    between atoms: _162  and  _163
REMARK   70  A    between atoms: _172  and  _174
REMARK   71  A    between atoms: _174  and  _175
REMARK   72  A    between atoms: _174  and  _177
REMARK   73  A    between atoms: _177  and  _178
REMARK   74  A    between atoms: _183  and  _185
REMARK   75  A    between atoms: _185  and  _186
REMARK   76  A    between atoms: _185  and  _188
REMARK   77  A    between atoms: _188  and  _189
REMARK   78  A    between atoms: _189  and  _190
REMARK   79  A    between atoms: _193  and  _195
REMARK   80  A    between atoms: _195  and  _196
REMARK   81  A    between atoms: _195  and  _198
REMARK   82  A    between atoms: _198  and  _199
REMARK   83  A    between atoms: _199  and  _200
REMARK   84  A    between atoms: _200  and  _201
REMARK   85  A    between atoms: _201  and  _202
REMARK   86  A    between atoms: _206  and  _208
REMARK   87  A    between atoms: _208  and  _209
REMARK   88  A    between atoms: _211  and  _213
REMARK   89  A    between atoms: _213  and  _214
REMARK   90  A    between atoms: _213  and  _216
REMARK   91  A    between atoms: _219  and  _221
REMARK   92  A    between atoms: _221  and  _222
REMARK   93  A    between atoms: _221  and  _224
REMARK   94  A    between atoms: _224  and  _225
REMARK   95  A    between atoms: _227  and  _229
REMARK   96  A    between atoms: _229  and  _230
REMARK   97  A    between atoms: _229  and  _232
REMARK   98  A    between atoms: _232  and  _233
REMARK   99  A    between atoms: _235  and  _237
REMARK  100  A    between atoms: _237  and  _238
REMARK  101  A    between atoms: _237  and  _240
REMARK  102  A    between atoms: _240  and  _241
REMARK  103  A    between atoms: _247  and  _249
REMARK  104  A    between atoms: _249  and  _250
REMARK  105  A    between atoms: _249  and  _252
REMARK  106  A    between atoms: _252  and  _253
REMARK  107  A    between atoms: _256  and  _258
REMARK  108  A    between atoms: _258  and  _259
REMARK  109  A    between atoms: _258  and  _261
REMARK  110  A    between atoms: _261  and  _262
REMARK  111  A    between atoms: _262  and  _263
REMARK  112  A    between atoms: _265  and  _267
REMARK  113  A    between atoms: _267  and  _268
REMARK  114  A    between atoms: _267  and  _270
REMARK  115  A    between atoms: _270  and  _271
REMARK  116  A    between atoms: _277  and  _279
REMARK  117  A    between atoms: _279  and  _280
REMARK  118  A    between atoms: _279  and  _282
REMARK  119  A    between atoms: _284  and  _286
REMARK  120  A    between atoms: _286  and  _287
REMARK  121  A    between atoms: _290  and  _292
REMARK  122  A    between atoms: _292  and  _293
REMARK  123  A    between atoms: _295  and  _297
REMARK  124  A    between atoms: _297  and  _298
REMARK  125  A    between atoms: _297  and  _300
REMARK  126  A    between atoms: _300  and  _301
REMARK  127  A    between atoms: _301  and  _302
REMARK  128  A    between atoms: _305  and  _307
REMARK  129  A    between atoms: _307  and  _308
REMARK  130  A    between atoms: _307  and  _310
REMARK  131  A    between atoms: _310  and  _311
REMARK  132  A    between atoms: _314  and  _316
REMARK  133  A    between atoms: _316  and  _317
REMARK  134  A    between atoms: _320  and  _322
REMARK  135  A    between atoms: _322  and  _323
REMARK  136  A    between atoms: _322  and  _325
REMARK  137  A    between atoms: _325  and  _326
REMARK  138  A    between atoms: _326  and  _449
REMARK  139  A    between atoms: _327  and  _329
REMARK  140  A    between atoms: _329  and  _330
REMARK  141  A    between atoms: _329  and  _332
REMARK  142  A    between atoms: _332  and  _333
REMARK  143  A    between atoms: _333  and  _334
REMARK  144  A    between atoms: _339  and  _341
REMARK  145  A    between atoms: _341  and  _342
REMARK  146  A    between atoms: _344  and  _346
REMARK  147  A    between atoms: _346  and  _347
REMARK  148  A    between atoms: _346  and  _349
REMARK  149  A    between atoms: _349  and  _350
REMARK  150  A    between atoms: _353  and  _355
REMARK  151  A    between atoms: _355  and  _356
REMARK  152  A    between atoms: _355  and  _358
REMARK  153  A    between atoms: _358  and  _359
REMARK  154  A    between atoms: _361  and  _363
REMARK  155  A    between atoms: _363  and  _364
REMARK  156  A    between atoms: _366  and  _368
REMARK  157  A    between atoms: _368  and  _369
REMARK  158  A    between atoms: _371  and  _373
REMARK  159  A    between atoms: _373  and  _374
REMARK  160  A    between atoms: _373  and  _376
REMARK  161  A    between atoms: _376  and  _377
REMARK  162  A    between atoms: _382  and  _384
REMARK  163  A    between atoms: _384  and  _385
REMARK  164  A    between atoms: _384  and  _387
REMARK  165  A    between atoms: _387  and  _388
REMARK  166  A    between atoms: _391  and  _393
REMARK  167  A    between atoms: _393  and  _394
REMARK  168  A    between atoms: _393  and  _396
REMARK  169  A    between atoms: _399  and  _401
REMARK  170  A    between atoms: _401  and  _402
REMARK  171  A    between atoms: _401  and  _404
REMARK  172  A    between atoms: _404  and  _405
REMARK  173  A    between atoms: _407  and  _409
REMARK  174  A    between atoms: _409  and  _410
REMARK  175  A    between atoms: _409  and  _412
REMARK  176  A    between atoms: _412  and  _413
REMARK  177  A    between atoms: _423  and  _425
REMARK  178  A    between atoms: _425  and  _426
REMARK  179  A    between atoms: _428  and  _430
REMARK  180  A    between atoms: _430  and  _431
REMARK  181  A    between atoms: _430  and  _433
REMARK  182  A    between atoms: _433  and  _434
REMARK  183  A    between atoms: _434  and  _435
REMARK  184  A    between atoms: _438  and  _440
REMARK  185  A    between atoms: _440  and  _441
REMARK  186  A    between atoms: _443  and  _445
REMARK  187  A    between atoms: _445  and  _446
REMARK  188  A    between atoms: _445  and  _448
REMARK  189  A    between atoms: _448  and  _449
REMARK  190  A    between atoms: _450  and  _452
REMARK  191  A    between atoms: _452  and  _453
REMARK  192  A    between atoms: _456  and  _458
REMARK  193  A    between atoms: _458  and  _459
REMARK  194  A    between atoms: _458  and  _461
REMARK  195  A    between atoms: _461  and  _462
REMARK  196  A    between atoms: _462  and  _463
REMARK  197  A    between atoms: _463  and  _464
REMARK  198  A    between atoms: _473  and  _475
REMARK  199  A    between atoms: _475  and  _476
REMARK  200  A    between atoms: _475  and  _478
REMARK  201  A    between atoms: _478  and  _479
REMARK  202  A    between atoms: _484  and  _485
REMARK  203  A    between atoms: _487  and  _489
REMARK  204  A    between atoms: _489  and  _490
REMARK  205  A    between atoms: _492  and  _494
REMARK  206  A    between atoms: _494  and  _495
REMARK  207  A    between atoms: _494  and  _497
REMARK  208  A    between atoms: _497  and  _498
REMARK  209  A    between atoms: _501  and  _503
REMARK  210  A    between atoms: _503  and  _504
REMARK  211  A    between atoms: _503  and  _506
REMARK  212  A    between atoms: _506  and  _507
REMARK  213  A    between atoms: _512  and  _513
REMARK  214  A    between atoms: _515  and  _517
REMARK  215  A    between atoms: _517  and  _518
REMARK  216  A    between atoms: _517  and  _520
REMARK  217  A    between atoms: _520  and  _521
REMARK                            x       y       z     vdW  Elec       q    Type
REMARK                         _______ _______ _______ _____ _____    ______ ____
ROOT
ATOM      1  O   HOH     1       9.642   0.829  26.883  0.00  0.00    +0.000 OA
ENDROOT
TORSDOF 0
REMARK  Name = ../refined-set-2016/2boh/2boh_pocket.pdb
REMARK  217 active torsions:
REMARK  status: ('A' for Active; 'I' for Inactive)
REMARK    1  A    between atoms: _1  and  _5
REMARK    2  A    between atoms: _5  and  _6
REMARK    3  A    between atoms: _5  and  _8
REMARK    4  A    between atoms: _8  and  _9
REMARK    5  A    between atoms: _12  and  _14
REMARK    6  A    between atoms: _14  and  _15
REMARK    7  A    between atoms: _14  and  _17
REMARK    8  A    between atoms: _20  and  _22
REMARK    9  A    between atoms: _22  and  _23
REMARK   10  A    between atoms: _22  and  _25
REMARK   11  A    between atoms: _25  and  _26
REMARK   12  A    between atoms: _32  and  _34
REMARK   13  A    between atoms: _34  and  _35
REMARK   14  A    between atoms: _34  and  _37
REMARK   15  A    between atoms: _39  and  _41
REMARK   16  A    between atoms: _41  and  _42
REMARK   17  A    between atoms: _41  and  _44
REMARK   18  A    between atoms: _44  and  _45
REMARK   19  A    between atoms: _50  and  _52
REMARK   20  A    between atoms: _52  and  _53
REMARK   21  A    between atoms: _52  and  _55
REMARK   22  A    between atoms: _55  and  _56
REMARK   23  A    between atoms: _56  and  _57
REMARK   24  A    between atoms: _62  and  _64
REMARK   25  A    between atoms: _64  and  _65
REMARK   26  A    between atoms: _64  and  _67
REMARK   27  A    between atoms: _67  and  _68
REMARK   28  A    between atoms: _74  and  _76
REMARK   29  A    between atoms: _76  and  _77
REMARK   30  A    between atoms: _76  and  _79
REMARK   31  A    between atoms: _79  and  _80
REMARK   32  A    between atoms: _83  and  _85
REMARK   33  A    between atoms: _85  and  _86
REMARK   34  A    between atoms: _85  and  _88
REMARK   35  A    between atoms: _88  and  _89
REMARK   36  A    between atoms: _89  and  _90
REMARK   37  A    between atoms: _90  and  _91
REMARK   38  A    between atoms: _91  and  _92
REMARK   39  A    between atoms: _96  and  _98
REMARK   40  A    between atoms: _98  and  _99
REMARK   41  A    between atoms: _98  and  _101
REMARK   42  A    between atoms: _101  and  _102
REMARK   43  A    between atoms: _102  and  _103
REMARK   44  A    between atoms: _106  and  _108
REMARK   45  A    between atoms: _108  and  _109
REMARK   46  A    between atoms: _108  and  _111
REMARK   47  A    between atoms: _111  and  _112
REMARK   48  A    between atoms: _115  and  _117
REMARK   49  A    between atoms: _117  and  _118
REMARK   50  A    between atoms: _117  and  _120
REMARK   51  A    between atoms: _120  and  _121
REMARK   52  A    between atoms: _126  and  _127
REMARK   53  A    between atoms: _129  and  _131
REMARK   54  A    between atoms: _131  and  _132
REMARK   55  A    between atoms: _131  and  _134
REMARK   56  A    between atoms: _134  and  _135
REMARK   57  A    between atoms: _138  and  _140
REMARK   58  A    between atoms: _140  and  _141
REMARK   59  A    between atoms: _140  and  _143
REMARK   60  A    between atoms: _143  and  _144
REMARK   61  A    between atoms: _147  and  _149
REMARK   62  A    between atoms: _149  and  _150
REMARK   63  A    between atoms: _149  and  _152
REMARK   64  A    between atoms: _155  and  _157
REMARK   65  A    between atoms: _157  and  _158
REMARK   66  A    between atoms: _157  and  _160
REMARK   67  A    between atoms: _160  and  _161
REMARK   68  A    between atoms: _161  and  _162
REMARK   69  A    between atoms: _162  and  _163
REMARK   70  A    between atoms: _172  and  _174
REMARK   71  A    between atoms: _174  and  _175
REMARK   72  A    between atoms: _174  and  _177
REMARK   73  A    between atoms: _177  and  _178
REMARK   74  A    between atoms: _183  and  _185
REMARK   75  A    between atoms: _185  and  _186
REMARK   76  A    between atoms: _185  and  _188
REMARK   77  A    between atoms: _188  and  _189
REMARK   78  A    between atoms: _189  and  _190
REMARK   79  A    between atoms: _193  and  _195
REMARK   80  A    between atoms: _195  and  _196
REMARK   81  A    between atoms: _195  and  _198
REMARK   82  A    between atoms: _198  and  _199
REMARK   83  A    between atoms: _199  and  _200
REMARK   84  A    between atoms: _200  and  _201
REMARK   85  A    between atoms: _201  and  _202
REMARK   86  A    between atoms: _206  and  _208
REMARK   87  A    between atoms: _208  and  _209
REMARK   88  A    between atoms: _211  and  _213
REMARK   89  A    between atoms: _213  and  _214
REMARK   90  A    between atoms: _213  and  _216
REMARK   91  A    between atoms: _219  and  _221
REMARK   92  A    between atoms: _221  and  _222
REMARK   93  A    between atoms: _221  and  _224
REMARK   94  A    between atoms: _224  and  _225
REMARK   95  A    between atoms: _227  and  _229
REMARK   96  A    between atoms: _229  and  _230
REMARK   97  A    between atoms: _229  and  _232
REMARK   98  A    between atoms: _232  and  _233
REMARK   99  A    between atoms: _235  and  _237
REMARK  100  A    between atoms: _237  and  _238
REMARK  101  A    between atoms: _237  and  _240
REMARK  102  A    between atoms: _240  and  _241
REMARK  103  A    between atoms: _247  and  _249
REMARK  104  A    between atoms: _249  and  _250
REMARK  105  A    between atoms: _249  and  _252
REMARK  106  A    between atoms: _252  and  _253
REMARK  107  A    between atoms: _256  and  _258
REMARK  108  A    between atoms: _258  and  _259
REMARK  109  A    between atoms: _258  and  _261
REMARK  110  A    between atoms: _261  and  _262
REMARK  111  A    between atoms: _262  and  _263
REMARK  112  A    between atoms: _265  and  _267
REMARK  113  A    between atoms: _267  and  _268
REMARK  114  A    between atoms: _267  and  _270
REMARK  115  A    between atoms: _270  and  _271
REMARK  116  A    between atoms: _277  and  _279
REMARK  117  A    between atoms: _279  and  _280
REMARK  118  A    between atoms: _279  and  _282
REMARK  119  A    between atoms: _284  and  _286
REMARK  120  A    between atoms: _286  and  _287
REMARK  121  A    between atoms: _290  and  _292
REMARK  122  A    between atoms: _292  and  _293
REMARK  123  A    between atoms: _295  and  _297
REMARK  124  A    between atoms: _297  and  _298
REMARK  125  A    between atoms: _297  and  _300
REMARK  126  A    between atoms: _300  and  _301
REMARK  127  A    between atoms: _301  and  _302
REMARK  128  A    between atoms: _305  and  _307
REMARK  129  A    between atoms: _307  and  _308
REMARK  130  A    between atoms: _307  and  _310
REMARK  131  A    between atoms: _310  and  _311
REMARK  132  A    between atoms: _314  and  _316
REMARK  133  A    between atoms: _316  and  _317
REMARK  134  A    between atoms: _320  and  _322
REMARK  135  A    between atoms: _322  and  _323
REMARK  136  A    between atoms: _322  and  _325
REMARK  137  A    between atoms: _325  and  _326
REMARK  138  A    between atoms: _326  and  _449
REMARK  139  A    between atoms: _327  and  _329
REMARK  140  A    between atoms: _329  and  _330
REMARK  141  A    between atoms: _329  and  _332
REMARK  142  A    between atoms: _332  and  _333
REMARK  143  A    between atoms: _333  and  _334
REMARK  144  A    between atoms: _339  and  _341
REMARK  145  A    between atoms: _341  and  _342
REMARK  146  A    between atoms: _344  and  _346
REMARK  147  A    between atoms: _346  and  _347
REMARK  148  A    between atoms: _346  and  _349
REMARK  149  A    between atoms: _349  and  _350
REMARK  150  A    between atoms: _353  and  _355
REMARK  151  A    between atoms: _355  and  _356
REMARK  152  A    between atoms: _355  and  _358
REMARK  153  A    between atoms: _358  and  _359
REMARK  154  A    between atoms: _361  and  _363
REMARK  155  A    between atoms: _363  and  _364
REMARK  156  A    between atoms: _366  and  _368
REMARK  157  A    between atoms: _368  and  _369
REMARK  158  A    between atoms: _371  and  _373
REMARK  159  A    between atoms: _373  and  _374
REMARK  160  A    between atoms: _373  and  _376
REMARK  161  A    between atoms: _376  and  _377
REMARK  162  A    between atoms: _382  and  _384
REMARK  163  A    between atoms: _384  and  _385
REMARK  164  A    between atoms: _384  and  _387
REMARK  165  A    between atoms: _387  and  _388
REMARK  166  A    between atoms: _391  and  _393
REMARK  167  A    between atoms: _393  and  _394
REMARK  168  A    between atoms: _393  and  _396
REMARK  169  A    between atoms: _399  and  _401
REMARK  170  A    between atoms: _401  and  _402
REMARK  171  A    between atoms: _401  and  _404
REMARK  172  A    between atoms: _404  and  _405
REMARK  173  A    between atoms: _407  and  _409
REMARK  174  A    between atoms: _409  and  _410
REMARK  175  A    between atoms: _409  and  _412
REMARK  176  A    between atoms: _412  and  _413
REMARK  177  A    between atoms: _423  and  _425
REMARK  178  A    between atoms: _425  and  _426
REMARK  179  A    between atoms: _428  and  _430
REMARK  180  A    between atoms: _430  and  _431
REMARK  181  A    between atoms: _430  and  _433
REMARK  182  A    between atoms: _433  and  _434
REMARK  183  A    between atoms: _434  and  _435
REMARK  184  A    between atoms: _438  and  _440
REMARK  185  A    between atoms: _440  and  _441
REMARK  186  A    between atoms: _443  and  _445
REMARK  187  A    between atoms: _445  and  _446
REMARK  188  A    between atoms: _445  and  _448
REMARK  189  A    between atoms: _448  and  _449
REMARK  190  A    between atoms: _450  and  _452
REMARK  191  A    between atoms: _452  and  _453
REMARK  192  A    between atoms: _456  and  _458
REMARK  193  A    between atoms: _458  and  _459
REMARK  194  A    between atoms: _458  and  _461
REMARK  195  A    between atoms: _461  and  _462
REMARK  196  A    between atoms: _462  and  _463
REMARK  197  A    between atoms: _463  and  _464
REMARK  198  A    between atoms: _473  and  _475
REMARK  199  A    between atoms: _475  and  _476
REMARK  200  A    between atoms: _475  and  _478
REMARK  201  A    between atoms: _478  and  _479
REMARK  202  A    between atoms: _484  and  _485
REMARK  203  A    between atoms: _487  and  _489
REMARK  204  A    between atoms: _489  and  _490
REMARK  205  A    between atoms: _492  and  _494
REMARK  206  A    between atoms: _494  and  _495
REMARK  207  A    between atoms: _494  and  _497
REMARK  208  A    between atoms: _497  and  _498
REMARK  209  A    between atoms: _501  and  _503
REMARK  210  A    between atoms: _503  and  _504
REMARK  211  A    between atoms: _503  and  _506
REMARK  212  A    between atoms: _506  and  _507
REMARK  213  A    between atoms: _512  and  _513
REMARK  214  A    between atoms: _515  and  _517
REMARK  215  A    between atoms: _517  and  _518
REMARK  216  A    between atoms: _517  and  _520
REMARK  217  A    between atoms: _520  and  _521
REMARK                            x       y       z     vdW  Elec       q    Type
REMARK                         _______ _______ _______ _____ _____    ______ ____
ROOT
ATOM      1  O   HOH     1      14.789   6.454  31.071  0.00  0.00    +0.000 OA
ENDROOT
TORSDOF 0
