REMARK  Name = ../refined-set-2016/3wqm/3wqm_pocket.pdb
REMARK  167 active torsions:
REMARK  status: ('A' for Active; 'I' for Inactive)
REMARK    1  A    between atoms: _1  and  _3
REMARK    2  A    between atoms: _3  and  _4
REMARK    3  A    between atoms: _3  and  _6
REMARK    4  A    between atoms: _6  and  _7
REMARK    5  A    between atoms: _13  and  _15
REMARK    6  A    between atoms: _15  and  _16
REMARK    7  A    between atoms: _15  and  _18
REMARK    8  A    between atoms: _18  and  _19
REMARK    9  A    between atoms: _19  and  _21
REMARK   10  A    between atoms: _22  and  _24
REMARK   11  A    between atoms: _24  and  _25
REMARK   12  A    between atoms: _27  and  _29
REMARK   13  A    between atoms: _29  and  _30
REMARK   14  A    between atoms: _29  and  _32
REMARK   15  A    between atoms: _32  and  _33
REMARK   16  A    between atoms: _36  and  _38
REMARK   17  A    between atoms: _38  and  _39
REMARK   18  A    between atoms: _38  and  _41
REMARK   19  A    between atoms: _41  and  _42
REMARK   20  A    between atoms: _42  and  _43
REMARK   21  A    between atoms: _43  and  _44
REMARK   22  A    between atoms: _53  and  _55
REMARK   23  A    between atoms: _55  and  _56
REMARK   24  A    between atoms: _55  and  _58
REMARK   25  A    between atoms: _58  and  _59
REMARK   26  A    between atoms: _59  and  _60
REMARK   27  A    between atoms: _60  and  _61
REMARK   28  A    between atoms: _70  and  _72
REMARK   29  A    between atoms: _72  and  _73
REMARK   30  A    between atoms: _72  and  _75
REMARK   31  A    between atoms: _75  and  _76
REMARK   32  A    between atoms: _86  and  _88
REMARK   33  A    between atoms: _88  and  _89
REMARK   34  A    between atoms: _88  and  _91
REMARK   35  A    between atoms: _91  and  _92
REMARK   36  A    between atoms: _98  and  _100
REMARK   37  A    between atoms: _100  and  _101
REMARK   38  A    between atoms: _100  and  _103
REMARK   39  A    between atoms: _103  and  _104
REMARK   40  A    between atoms: _109  and  _111
REMARK   41  A    between atoms: _111  and  _112
REMARK   42  A    between atoms: _111  and  _114
REMARK   43  A    between atoms: _114  and  _115
REMARK   44  A    between atoms: _118  and  _120
REMARK   45  A    between atoms: _120  and  _121
REMARK   46  A    between atoms: _120  and  _123
REMARK   47  A    between atoms: _123  and  _124
REMARK   48  A    between atoms: _124  and  _125
REMARK   49  A    between atoms: _128  and  _130
REMARK   50  A    between atoms: _130  and  _131
REMARK   51  A    between atoms: _130  and  _133
REMARK   52  A    between atoms: _133  and  _134
REMARK   53  A    between atoms: _139  and  _141
REMARK   54  A    between atoms: _141  and  _142
REMARK   55  A    between atoms: _141  and  _144
REMARK   56  A    between atoms: _144  and  _145
REMARK   57  A    between atoms: _150  and  _151
REMARK   58  A    between atoms: _153  and  _155
REMARK   59  A    between atoms: _155  and  _156
REMARK   60  A    between atoms: _155  and  _158
REMARK   61  A    between atoms: _158  and  _159
REMARK   62  A    between atoms: _162  and  _164
REMARK   63  A    between atoms: _164  and  _165
REMARK   64  A    between atoms: _164  and  _167
REMARK   65  A    between atoms: _167  and  _168
REMARK   66  A    between atoms: _168  and  _169
REMARK   67  A    between atoms: _169  and  _170
REMARK   68  A    between atoms: _179  and  _181
REMARK   69  A    between atoms: _181  and  _182
REMARK   70  A    between atoms: _181  and  _184
REMARK   71  A    between atoms: _184  and  _185
REMARK   72  A    between atoms: _190  and  _191
REMARK   73  A    between atoms: _193  and  _195
REMARK   74  A    between atoms: _195  and  _196
REMARK   75  A    between atoms: _195  and  _198
REMARK   76  A    between atoms: _198  and  _199
REMARK   77  A    between atoms: _199  and  _200
REMARK   78  A    between atoms: _205  and  _207
REMARK   79  A    between atoms: _207  and  _208
REMARK   80  A    between atoms: _207  and  _210
REMARK   81  A    between atoms: _210  and  _211
REMARK   82  A    between atoms: _217  and  _219
REMARK   83  A    between atoms: _219  and  _220
REMARK   84  A    between atoms: _219  and  _222
REMARK   85  A    between atoms: _222  and  _223
REMARK   86  A    between atoms: _223  and  _224
REMARK   87  A    between atoms: _224  and  _225
REMARK   88  A    between atoms: _235  and  _236
REMARK   89  A    between atoms: _241  and  _243
REMARK   90  A    between atoms: _243  and  _244
REMARK   91  A    between atoms: _243  and  _246
REMARK   92  A    between atoms: _246  and  _247
REMARK   93  A    between atoms: _249  and  _251
REMARK   94  A    between atoms: _251  and  _252
REMARK   95  A    between atoms: _251  and  _254
REMARK   96  A    between atoms: _254  and  _255
REMARK   97  A    between atoms: _260  and  _261
REMARK   98  A    between atoms: _263  and  _265
REMARK   99  A    between atoms: _265  and  _266
REMARK  100  A    between atoms: _265  and  _268
REMARK  101  A    between atoms: _268  and  _269
REMARK  102  A    between atoms: _272  and  _274
REMARK  103  A    between atoms: _274  and  _275
REMARK  104  A    between atoms: _277  and  _279
REMARK  105  A    between atoms: _279  and  _280
REMARK  106  A    between atoms: _279  and  _282
REMARK  107  A    between atoms: _282  and  _283
REMARK  108  A    between atoms: _286  and  _288
REMARK  109  A    between atoms: _288  and  _289
REMARK  110  A    between atoms: _288  and  _291
REMARK  111  A    between atoms: _291  and  _292
REMARK  112  A    between atoms: _302  and  _304
REMARK  113  A    between atoms: _304  and  _305
REMARK  114  A    between atoms: _304  and  _307
REMARK  115  A    between atoms: _307  and  _308
REMARK  116  A    between atoms: _308  and  _309
REMARK  117  A    between atoms: _309  and  _310
REMARK  118  A    between atoms: _310  and  _311
REMARK  119  A    between atoms: _316  and  _317
REMARK  120  A    between atoms: _322  and  _324
REMARK  121  A    between atoms: _324  and  _325
REMARK  122  A    between atoms: _324  and  _327
REMARK  123  A    between atoms: _327  and  _328
REMARK  124  A    between atoms: _331  and  _333
REMARK  125  A    between atoms: _333  and  _334
REMARK  126  A    between atoms: _333  and  _336
REMARK  127  A    between atoms: _336  and  _337
REMARK  128  A    between atoms: _342  and  _343
REMARK  129  A    between atoms: _345  and  _347
REMARK  130  A    between atoms: _347  and  _348
REMARK  131  A    between atoms: _347  and  _350
REMARK  132  A    between atoms: _350  and  _351
REMARK  133  A    between atoms: _353  and  _355
REMARK  134  A    between atoms: _355  and  _356
REMARK  135  A    between atoms: _359  and  _361
REMARK  136  A    between atoms: _361  and  _362
REMARK  137  A    between atoms: _361  and  _364
REMARK  138  A    between atoms: _364  and  _365
REMARK  139  A    between atoms: _365  and  _366
REMARK  140  A    between atoms: _368  and  _370
REMARK  141  A    between atoms: _370  and  _371
REMARK  142  A    between atoms: _370  and  _373
REMARK  143  A    between atoms: _373  and  _374
REMARK  144  A    between atoms: _374  and  _375
REMARK  145  A    between atoms: _380  and  _382
REMARK  146  A    between atoms: _382  and  _383
REMARK  147  A    between atoms: _382  and  _385
REMARK  148  A    between atoms: _385  and  _386
REMARK  149  A    between atoms: _389  and  _391
REMARK  150  A    between atoms: _391  and  _392
REMARK  151  A    between atoms: _391  and  _394
REMARK  152  A    between atoms: _394  and  _395
REMARK  153  A    between atoms: _400  and  _402
REMARK  154  A    between atoms: _402  and  _403
REMARK  155  A    between atoms: _402  and  _405
REMARK  156  A    between atoms: _405  and  _406
REMARK  157  A    between atoms: _409  and  _411
REMARK  158  A    between atoms: _411  and  _412
REMARK  159  A    between atoms: _411  and  _414
REMARK  160  A    between atoms: _414  and  _415
REMARK  161  A    between atoms: _415  and  _416
REMARK  162  A    between atoms: _416  and  _417
REMARK  163  A    between atoms: _426  and  _428
REMARK  164  A    between atoms: _428  and  _429
REMARK  165  A    between atoms: _428  and  _431
REMARK  166  A    between atoms: _431  and  _432
REMARK  167  A    between atoms: _437  and  _438
REMARK                            x       y       z     vdW  Elec       q    Type
REMARK                         _______ _______ _______ _____ _____    ______ ____
ROOT
ATOM      1  CA  ARG A   6      -8.102 -12.847  21.398  0.00  0.00    +0.000 C 
ENDROOT
BRANCH   1   4
ATOM      2  C   ARG A   5      -9.618 -14.007  22.876  0.00  0.00    +0.000 C 
ATOM      3  O   ARG A   5      -9.247 -13.327  23.832  0.00  0.00    +0.000 OA
ATOM      4  N   ARG A   6      -9.133 -13.840  21.650  0.00  0.00    +0.000 N 
ATOM      5  H   ARG A   6      -9.493 -14.423  20.867  0.00  0.00    +0.000 HD
BRANCH   2   6
ATOM      6  CA  ARG A   5     -10.675 -15.088  23.063  0.00  0.00    +0.000 C 
BRANCH   6   9
ATOM      7  C   THR A   4     -12.552 -13.916  22.037  0.00  0.00    +0.000 C 
ATOM      8  O   THR A   4     -12.353 -12.905  22.712  0.00  0.00    +0.000 OA
ATOM      9  N   ARG A   5     -11.798 -15.007  22.135  0.00  0.00    +0.000 N 
ATOM     10  H   ARG A   5     -12.015 -15.826  21.533  0.00  0.00    +0.000 HD
BRANCH   7  11
ATOM     11  CA  THR A   4     -13.712 -13.976  21.034  0.00  0.00    +0.000 C 
BRANCH  11  13
ATOM     12  C   GLY A   3     -12.324 -13.734  19.037  0.00  0.00    +0.000 C 
ATOM     13  N   THR A   4     -13.292 -14.365  19.691  0.00  0.00    +0.000 N 
ATOM     14  H   THR A   4     -13.769 -15.166  19.230  0.00  0.00    +0.000 HD
ATOM     15  O   GLY A   3     -11.708 -12.789  19.514  0.00  0.00    +0.000 OA
BRANCH  12  16
ATOM     16  CA  GLY A   3     -12.010 -14.252  17.645  0.00  0.00    +0.000 C 
BRANCH  16  18
ATOM     17  C   UNK A   2     -14.218 -14.397  16.691  0.00  0.00    +0.000 C 
ATOM     18  N   GLY A   3     -13.131 -15.018  17.134  0.00  0.00    +0.000 N 
ATOM     19  H   GLY A   3     -13.083 -16.057  17.115  0.00  0.00    +0.000 HD
ATOM     20  O   UNK A   2     -14.326 -13.169  16.670  0.00  0.00    +0.000 OA
BRANCH  17  21
ATOM     21  C   UNK A   2     -15.354 -15.282  16.192  0.00  0.00    +0.000 C 
BRANCH  21  24
ATOM     22  C   PHE A   1     -17.753 -14.923  16.203  0.00  0.00    +0.000 C 
ATOM     23  O   PHE A   1     -17.983 -16.079  16.555  0.00  0.00    +0.000 OA
ATOM     24  N   UNK A   2     -16.530 -14.451  16.003  0.00  0.00    +0.000 N 
ATOM     25  H   UNK A   2     -16.410 -13.462  15.704  0.00  0.00    +0.000 HD
BRANCH  22  26
ATOM     26  CA  PHE A   1     -18.880 -13.952  15.933  0.00  0.00    +0.000 C 
BRANCH  26  27
ATOM     27  N   PHE A   1     -19.577 -14.485  14.777  0.00  0.00    +0.000 NA
ATOM     28  H   PHE A   1     -20.162 -15.339  14.877  0.00  0.00    +0.000 HD
ENDBRANCH  26  27
BRANCH  26  29
ATOM     29  CB  PHE A   1     -19.819 -13.842  17.129  0.00  0.00    +0.000 C 
BRANCH  29  30
ATOM     30  CG  PHE A   1     -20.682 -12.623  17.084  0.00  0.00    +0.000 A 
ATOM     31  CD2 PHE A   1     -20.141 -11.371  17.345  0.00  0.00    +0.000 A 
ATOM     32  CE2 PHE A   1     -20.921 -10.225  17.251  0.00  0.00    +0.000 A 
ATOM     33  CZ  PHE A   1     -22.259 -10.329  16.892  0.00  0.00    +0.000 A 
ATOM     34  CE1 PHE A   1     -22.806 -11.574  16.632  0.00  0.00    +0.000 A 
ATOM     35  CD1 PHE A   1     -22.018 -12.713  16.729  0.00  0.00    +0.000 A 
ENDBRANCH  29  30
ENDBRANCH  26  29
ENDBRANCH  22  26
ENDBRANCH  21  24
BRANCH  21  36
ATOM     36  C   UNK A   2     -14.985 -15.942  14.858  0.00  0.00    +0.000 C 
BRANCH  36  37
ATOM     37  C   UNK A   2     -14.041 -17.118  15.028  0.00  0.00    +0.000 C 
ATOM     38  O   UNK A   2     -13.693 -17.755  14.009  0.00  0.00    +0.000 OA
BRANCH  37  39
ATOM     39  O   UNK A   2     -13.650 -17.409  16.180  0.00  0.00    +0.000 OA
ATOM     40 MG   UNK A   2     -12.275 -18.646  17.424  0.00  0.00    +0.000 Mg
ENDBRANCH  37  39
ENDBRANCH  36  37
ENDBRANCH  21  36
ENDBRANCH  17  21
ENDBRANCH  16  18
ENDBRANCH  12  16
ENDBRANCH  11  13
BRANCH  11  41
ATOM     41  CB  THR A   4     -14.755 -14.962  21.585  0.00  0.00    +0.000 C 
ATOM     42  CG2 THR A   4     -15.523 -14.330  22.735  0.00  0.00    +0.000 C 
BRANCH  41  43
ATOM     43  OG1 THR A   4     -15.675 -15.320  20.547  0.00  0.00    +0.000 OA
ATOM     44  HG1 THR A   4     -16.133 -14.506  20.218  0.00  0.00    +0.000 HD
ENDBRANCH  41  43
ENDBRANCH  11  41
ENDBRANCH   7  11
ENDBRANCH   6   9
BRANCH   6  45
ATOM     45  CB  ARG A   5     -10.011 -16.460  22.958  0.00  0.00    +0.000 C 
BRANCH  45  46
ATOM     46  CG  ARG A   5     -10.426 -17.449  24.031  0.00  0.00    +0.000 C 
BRANCH  46  47
ATOM     47  CD  ARG A   5      -9.873 -18.820  23.694  0.00  0.00    +0.000 C 
BRANCH  47  48
ATOM     48  NE  ARG A   5      -9.620 -19.658  24.861  0.00  0.00    +0.330 N 
ATOM     49  HE  ARG A   5      -9.806 -19.256  25.802  0.00  0.00    +0.000 HD
ATOM     50  CZ  ARG A   5      -9.165 -20.906  24.791  0.00  0.00    +0.000 C 
ATOM     51  NH2 ARG A   5      -8.938 -21.598  25.902  0.00  0.00    +0.330 N 
ATOM     52 HH21 ARG A   5      -9.116 -21.164  26.830  0.00  0.00    +0.000 HD
ATOM     53 HH22 ARG A   5      -8.582 -22.574  25.843  0.00  0.00    +0.000 HD
ATOM     54  NH1 ARG A   5      -8.921 -21.459  23.608  0.00  0.00    +0.330 N 
ATOM     55 HH11 ARG A   5      -8.565 -22.435  23.554  0.00  0.00    +0.000 HD
ATOM     56 HH12 ARG A   5      -9.086 -20.916  22.736  0.00  0.00    +0.000 HD
ENDBRANCH  47  48
ENDBRANCH  46  47
ENDBRANCH  45  46
ENDBRANCH   6  45
ENDBRANCH   2   6
ENDBRANCH   1   4
BRANCH   1  57
ATOM     57  C   ARG A   6      -8.620 -11.427  21.566  0.00  0.00    +0.000 C 
ATOM     58  O   ARG A   6      -7.880 -10.542  21.995  0.00  0.00    +0.000 OA
ATOM     59  N   TRP A   7      -9.887 -11.201  21.236  0.00  0.00    +0.000 N 
ATOM     60  H   TRP A   7     -10.473 -11.973  20.860  0.00  0.00    +0.000 HD
BRANCH  59  61
ATOM     61  CA  TRP A   7     -10.454  -9.869  21.402  0.00  0.00    +0.000 C 
BRANCH  61  62
ATOM     62  C   TRP A   7     -10.440  -9.518  22.883  0.00  0.00    +0.000 C 
ATOM     63  N   PHE A   8     -10.992 -10.412  23.695  0.00  0.00    +0.000 N 
ATOM     64  H   PHE A   8     -11.386 -11.285  23.290  0.00  0.00    +0.000 HD
ATOM     65  O   TRP A   7      -9.945  -8.468  23.279  0.00  0.00    +0.000 OA
BRANCH  63  66
ATOM     66  CA  PHE A   8     -11.063 -10.208  25.134  0.00  0.00    +0.000 C 
BRANCH  66  67
ATOM     67  C   PHE A   8      -9.693  -9.917  25.743  0.00  0.00    +0.000 C 
ATOM     68  O   PHE A   8      -9.487  -8.878  26.375  0.00  0.00    +0.000 OA
ATOM     69  N   HIS A   9      -8.759 -10.836  25.540  0.00  0.00    +0.000 N 
ATOM     70  H   HIS A   9      -8.992 -11.682  24.981  0.00  0.00    +0.000 HD
BRANCH  69  71
ATOM     71  CA  HIS A   9      -7.417 -10.691  26.079  0.00  0.00    +0.000 C 
BRANCH  71  72
ATOM     72  C   HIS A   9      -6.648  -9.501  25.513  0.00  0.00    +0.000 C 
ATOM     73  O   HIS A   9      -5.699  -9.028  26.132  0.00  0.00    +0.000 OA
ATOM     74  N   LEU A  10      -7.062  -9.008  24.349  0.00  0.00    +0.000 N 
ATOM     75  H   LEU A  10      -7.884  -9.435  23.876  0.00  0.00    +0.000 HD
BRANCH  74  76
ATOM     76  CA  LEU A  10      -6.382  -7.877  23.725  0.00  0.00    +0.000 C 
BRANCH  76  77
ATOM     77  C   LEU A  10      -7.041  -6.518  23.965  0.00  0.00    +0.000 C 
ATOM     78  O   LEU A  10      -6.349  -5.518  24.139  0.00  0.00    +0.000 OA
ATOM     79  N   GLU A  11      -8.370  -6.476  23.985  0.00  0.00    +0.000 N 
ATOM     80  H   GLU A  11      -8.914  -7.354  23.861  0.00  0.00    +0.000 HD
BRANCH  79  81
ATOM     81  CA  GLU A  11      -9.075  -5.210  24.179  0.00  0.00    +0.000 C 
BRANCH  81  82
ATOM     82  C   GLU A  11      -9.762  -5.005  25.522  0.00  0.00    +0.000 C 
ATOM     83  O   GLU A  11     -10.245  -3.910  25.812  0.00  0.00    +0.000 OA
ENDBRANCH  81  82
BRANCH  81  84
ATOM     84  CB  GLU A  11     -10.094  -5.011  23.059  0.00  0.00    +0.000 C 
BRANCH  84  85
ATOM     85  CG  GLU A  11      -9.447  -4.815  21.709  0.00  0.00    +0.000 C 
BRANCH  85  86
ATOM     86  CD  GLU A  11      -8.562  -3.585  21.666  0.00  0.00    +0.000 C 
ATOM     87  OE2 GLU A  11      -8.731  -2.701  22.533  0.00  0.00    +0.000 OA
ATOM     88  OE1 GLU A  11      -7.704  -3.499  20.763  0.00  0.00    +0.000 OA
ENDBRANCH  85  86
ENDBRANCH  84  85
ENDBRANCH  81  84
ENDBRANCH  79  81
ENDBRANCH  76  77
BRANCH  76  89
ATOM     89  CB  LEU A  10      -6.242  -8.112  22.215  0.00  0.00    +0.000 C 
BRANCH  89  90
ATOM     90  CG  LEU A  10      -5.296  -9.233  21.770  0.00  0.00    +0.000 C 
ATOM     91  CD2 LEU A  10      -3.862  -8.863  22.128  0.00  0.00    +0.000 C 
ATOM     92  CD1 LEU A  10      -5.433  -9.468  20.274  0.00  0.00    +0.000 C 
ENDBRANCH  89  90
ENDBRANCH  76  89
ENDBRANCH  74  76
ENDBRANCH  71  72
BRANCH  71  93
ATOM     93  CB  HIS A   9      -6.632 -11.978  25.844  0.00  0.00    +0.000 C 
BRANCH  93  94
ATOM     94  CG  HIS A   9      -7.181 -13.163  26.578  0.00  0.00    +0.000 A 
ATOM     95  ND1 HIS A   9      -7.122 -13.282  27.950  0.00  0.00    +0.000 NA
ATOM     96  CE1 HIS A   9      -7.684 -14.421  28.316  0.00  0.00    +0.000 A 
ATOM     97  NE2 HIS A   9      -8.104 -15.046  27.231  0.00  0.00    +0.000 NA
ATOM     98  CD2 HIS A   9      -7.804 -14.279  26.131  0.00  0.00    +0.000 A 
ENDBRANCH  93  94
ENDBRANCH  71  93
ENDBRANCH  69  71
ENDBRANCH  66  67
BRANCH  66  99
ATOM     99  CB  PHE A   8     -11.670 -11.443  25.805  0.00  0.00    +0.000 C 
BRANCH  99 100
ATOM    100  CG  PHE A   8     -11.903 -11.281  27.282  0.00  0.00    +0.000 A 
ATOM    101  CD2 PHE A   8     -11.241 -12.092  28.198  0.00  0.00    +0.000 A 
ATOM    102  CE2 PHE A   8     -11.458 -11.948  29.568  0.00  0.00    +0.000 A 
ATOM    103  CZ  PHE A   8     -12.347 -10.981  30.030  0.00  0.00    +0.000 A 
ATOM    104  CE1 PHE A   8     -13.015 -10.164  29.123  0.00  0.00    +0.000 A 
ATOM    105  CD1 PHE A   8     -12.790 -10.317  27.758  0.00  0.00    +0.000 A 
ENDBRANCH  99 100
ENDBRANCH  66  99
ENDBRANCH  63  66
ENDBRANCH  61  62
BRANCH  61 106
ATOM    106  CB  TRP A   7     -11.898  -9.808  20.904  0.00  0.00    +0.000 C 
BRANCH 106 107
ATOM    107  CG  TRP A   7     -12.609  -8.570  21.379  0.00  0.00    +0.000 A 
ATOM    108  CD2 TRP A   7     -13.542  -8.482  22.465  0.00  0.00    +0.000 A 
ATOM    109  CE3 TRP A   7     -14.104  -9.420  23.341  0.00  0.00    +0.000 A 
ATOM    110  CZ3 TRP A   7     -15.006  -8.979  24.310  0.00  0.00    +0.000 A 
ATOM    111  CH2 TRP A   7     -15.351  -7.620  24.412  0.00  0.00    +0.000 A 
ATOM    112  CZ2 TRP A   7     -14.814  -6.679  23.567  0.00  0.00    +0.000 A 
ATOM    113  CE2 TRP A   7     -13.909  -7.123  22.594  0.00  0.00    +0.000 A 
ATOM    114  NE1 TRP A   7     -13.230  -6.421  21.631  0.00  0.00    +0.000 N 
ATOM    115  HE1 TRP A   7     -13.292  -5.395  21.474  0.00  0.00    +0.000 HD
ATOM    116  CD1 TRP A   7     -12.453  -7.296  20.906  0.00  0.00    +0.000 A 
ENDBRANCH 106 107
ENDBRANCH  61 106
ENDBRANCH  59  61
ENDBRANCH   1  57
BRANCH   1 117
ATOM    117  CB  ARG A   6      -7.499 -13.039  20.004  0.00  0.00    +0.000 C 
BRANCH 117 118
ATOM    118  CG  ARG A   6      -8.277 -12.430  18.872  0.00  0.00    +0.000 C 
BRANCH 118 119
ATOM    119  CD  ARG A   6      -7.802 -13.020  17.565  0.00  0.00    +0.000 C 
BRANCH 119 120
ATOM    120  NE  ARG A   6      -8.305 -14.379  17.402  0.00  0.00    +0.330 N 
ATOM    121  HE  ARG A   6      -8.881 -14.778  18.171  0.00  0.00    +0.000 HD
ATOM    122  CZ  ARG A   6      -8.078 -15.140  16.340  0.00  0.00    +0.000 C 
ATOM    123  NH2 ARG A   6      -8.612 -16.352  16.272  0.00  0.00    +0.330 N 
ATOM    124 HH21 ARG A   6      -9.207 -16.703  17.050  0.00  0.00    +0.000 HD
ATOM    125 HH22 ARG A   6      -8.436 -16.952  15.441  0.00  0.00    +0.000 HD
ATOM    126  NH1 ARG A   6      -7.342 -14.683  15.337  0.00  0.00    +0.330 N 
ATOM    127 HH11 ARG A   6      -6.940 -13.725  15.381  0.00  0.00    +0.000 HD
ATOM    128 HH12 ARG A   6      -7.166 -15.283  14.506  0.00  0.00    +0.000 HD
ENDBRANCH 119 120
ENDBRANCH 118 119
ENDBRANCH 117 118
ENDBRANCH   1 117
TORSDOF 48
REMARK  Name = ../refined-set-2016/3wqm/3wqm_pocket.pdb
REMARK  167 active torsions:
REMARK  status: ('A' for Active; 'I' for Inactive)
REMARK    1  A    between atoms: _1  and  _3
REMARK    2  A    between atoms: _3  and  _4
REMARK    3  A    between atoms: _3  and  _6
REMARK    4  A    between atoms: _6  and  _7
REMARK    5  A    between atoms: _13  and  _15
REMARK    6  A    between atoms: _15  and  _16
REMARK    7  A    between atoms: _15  and  _18
REMARK    8  A    between atoms: _18  and  _19
REMARK    9  A    between atoms: _19  and  _21
REMARK   10  A    between atoms: _22  and  _24
REMARK   11  A    between atoms: _24  and  _25
REMARK   12  A    between atoms: _27  and  _29
REMARK   13  A    between atoms: _29  and  _30
REMARK   14  A    between atoms: _29  and  _32
REMARK   15  A    between atoms: _32  and  _33
REMARK   16  A    between atoms: _36  and  _38
REMARK   17  A    between atoms: _38  and  _39
REMARK   18  A    between atoms: _38  and  _41
REMARK   19  A    between atoms: _41  and  _42
REMARK   20  A    between atoms: _42  and  _43
REMARK   21  A    between atoms: _43  and  _44
REMARK   22  A    between atoms: _53  and  _55
REMARK   23  A    between atoms: _55  and  _56
REMARK   24  A    between atoms: _55  and  _58
REMARK   25  A    between atoms: _58  and  _59
REMARK   26  A    between atoms: _59  and  _60
REMARK   27  A    between atoms: _60  and  _61
REMARK   28  A    between atoms: _70  and  _72
REMARK   29  A    between atoms: _72  and  _73
REMARK   30  A    between atoms: _72  and  _75
REMARK   31  A    between atoms: _75  and  _76
REMARK   32  A    between atoms: _86  and  _88
REMARK   33  A    between atoms: _88  and  _89
REMARK   34  A    between atoms: _88  and  _91
REMARK   35  A    between atoms: _91  and  _92
REMARK   36  A    between atoms: _98  and  _100
REMARK   37  A    between atoms: _100  and  _101
REMARK   38  A    between atoms: _100  and  _103
REMARK   39  A    between atoms: _103  and  _104
REMARK   40  A    between atoms: _109  and  _111
REMARK   41  A    between atoms: _111  and  _112
REMARK   42  A    between atoms: _111  and  _114
REMARK   43  A    between atoms: _114  and  _115
REMARK   44  A    between atoms: _118  and  _120
REMARK   45  A    between atoms: _120  and  _121
REMARK   46  A    between atoms: _120  and  _123
REMARK   47  A    between atoms: _123  and  _124
REMARK   48  A    between atoms: _124  and  _125
REMARK   49  A    between atoms: _128  and  _130
REMARK   50  A    between atoms: _130  and  _131
REMARK   51  A    between atoms: _130  and  _133
REMARK   52  A    between atoms: _133  and  _134
REMARK   53  A    between atoms: _139  and  _141
REMARK   54  A    between atoms: _141  and  _142
REMARK   55  A    between atoms: _141  and  _144
REMARK   56  A    between atoms: _144  and  _145
REMARK   57  A    between atoms: _150  and  _151
REMARK   58  A    between atoms: _153  and  _155
REMARK   59  A    between atoms: _155  and  _156
REMARK   60  A    between atoms: _155  and  _158
REMARK   61  A    between atoms: _158  and  _159
REMARK   62  A    between atoms: _162  and  _164
REMARK   63  A    between atoms: _164  and  _165
REMARK   64  A    between atoms: _164  and  _167
REMARK   65  A    between atoms: _167  and  _168
REMARK   66  A    between atoms: _168  and  _169
REMARK   67  A    between atoms: _169  and  _170
REMARK   68  A    between atoms: _179  and  _181
REMARK   69  A    between atoms: _181  and  _182
REMARK   70  A    between atoms: _181  and  _184
REMARK   71  A    between atoms: _184  and  _185
REMARK   72  A    between atoms: _190  and  _191
REMARK   73  A    between atoms: _193  and  _195
REMARK   74  A    between atoms: _195  and  _196
REMARK   75  A    between atoms: _195  and  _198
REMARK   76  A    between atoms: _198  and  _199
REMARK   77  A    between atoms: _199  and  _200
REMARK   78  A    between atoms: _205  and  _207
REMARK   79  A    between atoms: _207  and  _208
REMARK   80  A    between atoms: _207  and  _210
REMARK   81  A    between atoms: _210  and  _211
REMARK   82  A    between atoms: _217  and  _219
REMARK   83  A    between atoms: _219  and  _220
REMARK   84  A    between atoms: _219  and  _222
REMARK   85  A    between atoms: _222  and  _223
REMARK   86  A    between atoms: _223  and  _224
REMARK   87  A    between atoms: _224  and  _225
REMARK   88  A    between atoms: _235  and  _236
REMARK   89  A    between atoms: _241  and  _243
REMARK   90  A    between atoms: _243  and  _244
REMARK   91  A    between atoms: _243  and  _246
REMARK   92  A    between atoms: _246  and  _247
REMARK   93  A    between atoms: _249  and  _251
REMARK   94  A    between atoms: _251  and  _252
REMARK   95  A    between atoms: _251  and  _254
REMARK   96  A    between atoms: _254  and  _255
REMARK   97  A    between atoms: _260  and  _261
REMARK   98  A    between atoms: _263  and  _265
REMARK   99  A    between atoms: _265  and  _266
REMARK  100  A    between atoms: _265  and  _268
REMARK  101  A    between atoms: _268  and  _269
REMARK  102  A    between atoms: _272  and  _274
REMARK  103  A    between atoms: _274  and  _275
REMARK  104  A    between atoms: _277  and  _279
REMARK  105  A    between atoms: _279  and  _280
REMARK  106  A    between atoms: _279  and  _282
REMARK  107  A    between atoms: _282  and  _283
REMARK  108  A    between atoms: _286  and  _288
REMARK  109  A    between atoms: _288  and  _289
REMARK  110  A    between atoms: _288  and  _291
REMARK  111  A    between atoms: _291  and  _292
REMARK  112  A    between atoms: _302  and  _304
REMARK  113  A    between atoms: _304  and  _305
REMARK  114  A    between atoms: _304  and  _307
REMARK  115  A    between atoms: _307  and  _308
REMARK  116  A    between atoms: _308  and  _309
REMARK  117  A    between atoms: _309  and  _310
REMARK  118  A    between atoms: _310  and  _311
REMARK  119  A    between atoms: _316  and  _317
REMARK  120  A    between atoms: _322  and  _324
REMARK  121  A    between atoms: _324  and  _325
REMARK  122  A    between atoms: _324  and  _327
REMARK  123  A    between atoms: _327  and  _328
REMARK  124  A    between atoms: _331  and  _333
REMARK  125  A    between atoms: _333  and  _334
REMARK  126  A    between atoms: _333  and  _336
REMARK  127  A    between atoms: _336  and  _337
REMARK  128  A    between atoms: _342  and  _343
REMARK  129  A    between atoms: _345  and  _347
REMARK  130  A    between atoms: _347  and  _348
REMARK  131  A    between atoms: _347  and  _350
REMARK  132  A    between atoms: _350  and  _351
REMARK  133  A    between atoms: _353  and  _355
REMARK  134  A    between atoms: _355  and  _356
REMARK  135  A    between atoms: _359  and  _361
REMARK  136  A    between atoms: _361  and  _362
REMARK  137  A    between atoms: _361  and  _364
REMARK  138  A    between atoms: _364  and  _365
REMARK  139  A    between atoms: _365  and  _366
REMARK  140  A    between atoms: _368  and  _370
REMARK  141  A    between atoms: _370  and  _371
REMARK  142  A    between atoms: _370  and  _373
REMARK  143  A    between atoms: _373  and  _374
REMARK  144  A    between atoms: _374  and  _375
REMARK  145  A    between atoms: _380  and  _382
REMARK  146  A    between atoms: _382  and  _383
REMARK  147  A    between atoms: _382  and  _385
REMARK  148  A    between atoms: _385  and  _386
REMARK  149  A    between atoms: _389  and  _391
REMARK  150  A    between atoms: _391  and  _392
REMARK  151  A    between atoms: _391  and  _394
REMARK  152  A    between atoms: _394  and  _395
REMARK  153  A    between atoms: _400  and  _402
REMARK  154  A    between atoms: _402  and  _403
REMARK  155  A    between atoms: _402  and  _405
REMARK  156  A    between atoms: _405  and  _406
REMARK  157  A    between atoms: _409  and  _411
REMARK  158  A    between atoms: _411  and  _412
REMARK  159  A    between atoms: _411  and  _414
REMARK  160  A    between atoms: _414  and  _415
REMARK  161  A    between atoms: _415  and  _416
REMARK  162  A    between atoms: _416  and  _417
REMARK  163  A    between atoms: _426  and  _428
REMARK  164  A    between atoms: _428  and  _429
REMARK  165  A    between atoms: _428  and  _431
REMARK  166  A    between atoms: _431  and  _432
REMARK  167  A    between atoms: _437  and  _438
REMARK                            x       y       z     vdW  Elec       q    Type
REMARK                         _______ _______ _______ _____ _____    ______ ____
ROOT
ATOM      1  CB  ASN A   1      -6.784  -8.617  29.364  0.00  0.00    +0.110 C 
ENDROOT
BRANCH   1   2
ATOM      2  CG  ASN A   1      -7.616  -9.752  29.944  0.00  0.00    +0.221 C 
ATOM      3  ND2 ASN A   1      -8.781  -9.417  30.490  0.00  0.00    -0.329 N 
ATOM      4 HD21 ASN A   1      -9.391 -10.150  30.904  0.00  0.00    +0.145 HD
ATOM      5 HD22 ASN A   1      -9.082  -8.422  30.503  0.00  0.00    +0.145 HD
ATOM      6  OD1 ASN A   1      -7.212 -10.917  29.903  0.00  0.00    -0.275 OA
ENDBRANCH   1   2
BRANCH   1   7
ATOM      7  CA  ASN A   1      -7.432  -7.240  29.562  0.00  0.00    +0.142 C 
BRANCH   7   8
ATOM      8  N   ASN A   1      -8.495  -7.023  28.588  0.00  0.00    -0.239 NA
ATOM      9  H   ASN A   1      -8.540  -7.629  27.744  0.00  0.00    +0.142 HD
ENDBRANCH   7   8
BRANCH   7  10
ATOM     10  C   ASN A   1      -6.377  -6.154  29.396  0.00  0.00    +0.225 C 
ATOM     11  O   ASN A   1      -6.276  -5.536  28.333  0.00  0.00    -0.287 OA
ENDBRANCH   7  10
ENDBRANCH   1   7
TORSDOF 4
REMARK  Name = ../refined-set-2016/3wqm/3wqm_pocket.pdb
REMARK  167 active torsions:
REMARK  status: ('A' for Active; 'I' for Inactive)
REMARK    1  A    between atoms: _1  and  _3
REMARK    2  A    between atoms: _3  and  _4
REMARK    3  A    between atoms: _3  and  _6
REMARK    4  A    between atoms: _6  and  _7
REMARK    5  A    between atoms: _13  and  _15
REMARK    6  A    between atoms: _15  and  _16
REMARK    7  A    between atoms: _15  and  _18
REMARK    8  A    between atoms: _18  and  _19
REMARK    9  A    between atoms: _19  and  _21
REMARK   10  A    between atoms: _22  and  _24
REMARK   11  A    between atoms: _24  and  _25
REMARK   12  A    between atoms: _27  and  _29
REMARK   13  A    between atoms: _29  and  _30
REMARK   14  A    between atoms: _29  and  _32
REMARK   15  A    between atoms: _32  and  _33
REMARK   16  A    between atoms: _36  and  _38
REMARK   17  A    between atoms: _38  and  _39
REMARK   18  A    between atoms: _38  and  _41
REMARK   19  A    between atoms: _41  and  _42
REMARK   20  A    between atoms: _42  and  _43
REMARK   21  A    between atoms: _43  and  _44
REMARK   22  A    between atoms: _53  and  _55
REMARK   23  A    between atoms: _55  and  _56
REMARK   24  A    between atoms: _55  and  _58
REMARK   25  A    between atoms: _58  and  _59
REMARK   26  A    between atoms: _59  and  _60
REMARK   27  A    between atoms: _60  and  _61
REMARK   28  A    between atoms: _70  and  _72
REMARK   29  A    between atoms: _72  and  _73
REMARK   30  A    between atoms: _72  and  _75
REMARK   31  A    between atoms: _75  and  _76
REMARK   32  A    between atoms: _86  and  _88
REMARK   33  A    between atoms: _88  and  _89
REMARK   34  A    between atoms: _88  and  _91
REMARK   35  A    between atoms: _91  and  _92
REMARK   36  A    between atoms: _98  and  _100
REMARK   37  A    between atoms: _100  and  _101
REMARK   38  A    between atoms: _100  and  _103
REMARK   39  A    between atoms: _103  and  _104
REMARK   40  A    between atoms: _109  and  _111
REMARK   41  A    between atoms: _111  and  _112
REMARK   42  A    between atoms: _111  and  _114
REMARK   43  A    between atoms: _114  and  _115
REMARK   44  A    between atoms: _118  and  _120
REMARK   45  A    between atoms: _120  and  _121
REMARK   46  A    between atoms: _120  and  _123
REMARK   47  A    between atoms: _123  and  _124
REMARK   48  A    between atoms: _124  and  _125
REMARK   49  A    between atoms: _128  and  _130
REMARK   50  A    between atoms: _130  and  _131
REMARK   51  A    between atoms: _130  and  _133
REMARK   52  A    between atoms: _133  and  _134
REMARK   53  A    between atoms: _139  and  _141
REMARK   54  A    between atoms: _141  and  _142
REMARK   55  A    between atoms: _141  and  _144
REMARK   56  A    between atoms: _144  and  _145
REMARK   57  A    between atoms: _150  and  _151
REMARK   58  A    between atoms: _153  and  _155
REMARK   59  A    between atoms: _155  and  _156
REMARK   60  A    between atoms: _155  and  _158
REMARK   61  A    between atoms: _158  and  _159
REMARK   62  A    between atoms: _162  and  _164
REMARK   63  A    between atoms: _164  and  _165
REMARK   64  A    between atoms: _164  and  _167
REMARK   65  A    between atoms: _167  and  _168
REMARK   66  A    between atoms: _168  and  _169
REMARK   67  A    between atoms: _169  and  _170
REMARK   68  A    between atoms: _179  and  _181
REMARK   69  A    between atoms: _181  and  _182
REMARK   70  A    between atoms: _181  and  _184
REMARK   71  A    between atoms: _184  and  _185
REMARK   72  A    between atoms: _190  and  _191
REMARK   73  A    between atoms: _193  and  _195
REMARK   74  A    between atoms: _195  and  _196
REMARK   75  A    between atoms: _195  and  _198
REMARK   76  A    between atoms: _198  and  _199
REMARK   77  A    between atoms: _199  and  _200
REMARK   78  A    between atoms: _205  and  _207
REMARK   79  A    between atoms: _207  and  _208
REMARK   80  A    between atoms: _207  and  _210
REMARK   81  A    between atoms: _210  and  _211
REMARK   82  A    between atoms: _217  and  _219
REMARK   83  A    between atoms: _219  and  _220
REMARK   84  A    between atoms: _219  and  _222
REMARK   85  A    between atoms: _222  and  _223
REMARK   86  A    between atoms: _223  and  _224
REMARK   87  A    between atoms: _224  and  _225
REMARK   88  A    between atoms: _235  and  _236
REMARK   89  A    between atoms: _241  and  _243
REMARK   90  A    between atoms: _243  and  _244
REMARK   91  A    between atoms: _243  and  _246
REMARK   92  A    between atoms: _246  and  _247
REMARK   93  A    between atoms: _249  and  _251
REMARK   94  A    between atoms: _251  and  _252
REMARK   95  A    between atoms: _251  and  _254
REMARK   96  A    between atoms: _254  and  _255
REMARK   97  A    between atoms: _260  and  _261
REMARK   98  A    between atoms: _263  and  _265
REMARK   99  A    between atoms: _265  and  _266
REMARK  100  A    between atoms: _265  and  _268
REMARK  101  A    between atoms: _268  and  _269
REMARK  102  A    between atoms: _272  and  _274
REMARK  103  A    between atoms: _274  and  _275
REMARK  104  A    between atoms: _277  and  _279
REMARK  105  A    between atoms: _279  and  _280
REMARK  106  A    between atoms: _279  and  _282
REMARK  107  A    between atoms: _282  and  _283
REMARK  108  A    between atoms: _286  and  _288
REMARK  109  A    between atoms: _288  and  _289
REMARK  110  A    between atoms: _288  and  _291
REMARK  111  A    between atoms: _291  and  _292
REMARK  112  A    between atoms: _302  and  _304
REMARK  113  A    between atoms: _304  and  _305
REMARK  114  A    between atoms: _304  and  _307
REMARK  115  A    between atoms: _307  and  _308
REMARK  116  A    between atoms: _308  and  _309
REMARK  117  A    between atoms: _309  and  _310
REMARK  118  A    between atoms: _310  and  _311
REMARK  119  A    between atoms: _316  and  _317
REMARK  120  A    between atoms: _322  and  _324
REMARK  121  A    between atoms: _324  and  _325
REMARK  122  A    between atoms: _324  and  _327
REMARK  123  A    between atoms: _327  and  _328
REMARK  124  A    between atoms: _331  and  _333
REMARK  125  A    between atoms: _333  and  _334
REMARK  126  A    between atoms: _333  and  _336
REMARK  127  A    between atoms: _336  and  _337
REMARK  128  A    between atoms: _342  and  _343
REMARK  129  A    between atoms: _345  and  _347
REMARK  130  A    between atoms: _347  and  _348
REMARK  131  A    between atoms: _347  and  _350
REMARK  132  A    between atoms: _350  and  _351
REMARK  133  A    between atoms: _353  and  _355
REMARK  134  A    between atoms: _355  and  _356
REMARK  135  A    between atoms: _359  and  _361
REMARK  136  A    between atoms: _361  and  _362
REMARK  137  A    between atoms: _361  and  _364
REMARK  138  A    between atoms: _364  and  _365
REMARK  139  A    between atoms: _365  and  _366
REMARK  140  A    between atoms: _368  and  _370
REMARK  141  A    between atoms: _370  and  _371
REMARK  142  A    between atoms: _370  and  _373
REMARK  143  A    between atoms: _373  and  _374
REMARK  144  A    between atoms: _374  and  _375
REMARK  145  A    between atoms: _380  and  _382
REMARK  146  A    between atoms: _382  and  _383
REMARK  147  A    between atoms: _382  and  _385
REMARK  148  A    between atoms: _385  and  _386
REMARK  149  A    between atoms: _389  and  _391
REMARK  150  A    between atoms: _391  and  _392
REMARK  151  A    between atoms: _391  and  _394
REMARK  152  A    between atoms: _394  and  _395
REMARK  153  A    between atoms: _400  and  _402
REMARK  154  A    between atoms: _402  and  _403
REMARK  155  A    between atoms: _402  and  _405
REMARK  156  A    between atoms: _405  and  _406
REMARK  157  A    between atoms: _409  and  _411
REMARK  158  A    between atoms: _411  and  _412
REMARK  159  A    between atoms: _411  and  _414
REMARK  160  A    between atoms: _414  and  _415
REMARK  161  A    between atoms: _415  and  _416
REMARK  162  A    between atoms: _416  and  _417
REMARK  163  A    between atoms: _426  and  _428
REMARK  164  A    between atoms: _428  and  _429
REMARK  165  A    between atoms: _428  and  _431
REMARK  166  A    between atoms: _431  and  _432
REMARK  167  A    between atoms: _437  and  _438
REMARK                            x       y       z     vdW  Elec       q    Type
REMARK                         _______ _______ _______ _____ _____    ______ ____
ROOT
ATOM      1  CG  TYR A   1     -14.654 -15.362  28.208  0.00  0.00    -0.020 A 
ATOM      2  CD2 TYR A   1     -15.555 -16.365  27.851  0.00  0.00    -0.001 A 
ATOM      3  CE2 TYR A   1     -15.578 -16.885  26.560  0.00  0.00    +0.036 A 
ATOM      4  CZ  TYR A   1     -14.692 -16.403  25.611  0.00  0.00    +0.134 A 
ATOM      5  CE1 TYR A   1     -13.784 -15.406  25.941  0.00  0.00    +0.036 A 
ATOM      6  CD1 TYR A   1     -13.771 -14.891  27.236  0.00  0.00    -0.001 A 
ENDROOT
BRANCH   4   7
ATOM      7  OH  TYR A   1     -14.716 -16.918  24.334  0.00  0.00    -0.506 OA
ATOM      8  HH  TYR A   1     -14.025 -16.469  23.785  0.00  0.00    +0.292 HD
ENDBRANCH   4   7
BRANCH   1   9
ATOM      9  CB  TYR A   1     -14.654 -14.784  29.602  0.00  0.00    +0.051 C 
BRANCH   9  10
ATOM     10  CA  TYR A   1     -15.281 -13.390  29.688  0.00  0.00    +0.137 C 
BRANCH  10  11
ATOM     11  N   TYR A   1     -15.225 -12.915  31.066  0.00  0.00    -0.239 NA
ATOM     12  H   TYR A   1     -14.644 -13.444  31.747  0.00  0.00    +0.142 HD
ENDBRANCH  10  11
BRANCH  10  13
ATOM     13  C   TYR A   1     -16.677 -13.434  29.061  0.00  0.00    +0.224 C 
ATOM     14  O   TYR A   1     -17.042 -12.554  28.282  0.00  0.00    -0.287 OA
ENDBRANCH  10  13
ENDBRANCH   9  10
ENDBRANCH   1   9
TORSDOF 5
REMARK  Name = ../refined-set-2016/3wqm/3wqm_pocket.pdb
REMARK  167 active torsions:
REMARK  status: ('A' for Active; 'I' for Inactive)
REMARK    1  A    between atoms: _1  and  _3
REMARK    2  A    between atoms: _3  and  _4
REMARK    3  A    between atoms: _3  and  _6
REMARK    4  A    between atoms: _6  and  _7
REMARK    5  A    between atoms: _13  and  _15
REMARK    6  A    between atoms: _15  and  _16
REMARK    7  A    between atoms: _15  and  _18
REMARK    8  A    between atoms: _18  and  _19
REMARK    9  A    between atoms: _19  and  _21
REMARK   10  A    between atoms: _22  and  _24
REMARK   11  A    between atoms: _24  and  _25
REMARK   12  A    between atoms: _27  and  _29
REMARK   13  A    between atoms: _29  and  _30
REMARK   14  A    between atoms: _29  and  _32
REMARK   15  A    between atoms: _32  and  _33
REMARK   16  A    between atoms: _36  and  _38
REMARK   17  A    between atoms: _38  and  _39
REMARK   18  A    between atoms: _38  and  _41
REMARK   19  A    between atoms: _41  and  _42
REMARK   20  A    between atoms: _42  and  _43
REMARK   21  A    between atoms: _43  and  _44
REMARK   22  A    between atoms: _53  and  _55
REMARK   23  A    between atoms: _55  and  _56
REMARK   24  A    between atoms: _55  and  _58
REMARK   25  A    between atoms: _58  and  _59
REMARK   26  A    between atoms: _59  and  _60
REMARK   27  A    between atoms: _60  and  _61
REMARK   28  A    between atoms: _70  and  _72
REMARK   29  A    between atoms: _72  and  _73
REMARK   30  A    between atoms: _72  and  _75
REMARK   31  A    between atoms: _75  and  _76
REMARK   32  A    between atoms: _86  and  _88
REMARK   33  A    between atoms: _88  and  _89
REMARK   34  A    between atoms: _88  and  _91
REMARK   35  A    between atoms: _91  and  _92
REMARK   36  A    between atoms: _98  and  _100
REMARK   37  A    between atoms: _100  and  _101
REMARK   38  A    between atoms: _100  and  _103
REMARK   39  A    between atoms: _103  and  _104
REMARK   40  A    between atoms: _109  and  _111
REMARK   41  A    between atoms: _111  and  _112
REMARK   42  A    between atoms: _111  and  _114
REMARK   43  A    between atoms: _114  and  _115
REMARK   44  A    between atoms: _118  and  _120
REMARK   45  A    between atoms: _120  and  _121
REMARK   46  A    between atoms: _120  and  _123
REMARK   47  A    between atoms: _123  and  _124
REMARK   48  A    between atoms: _124  and  _125
REMARK   49  A    between atoms: _128  and  _130
REMARK   50  A    between atoms: _130  and  _131
REMARK   51  A    between atoms: _130  and  _133
REMARK   52  A    between atoms: _133  and  _134
REMARK   53  A    between atoms: _139  and  _141
REMARK   54  A    between atoms: _141  and  _142
REMARK   55  A    between atoms: _141  and  _144
REMARK   56  A    between atoms: _144  and  _145
REMARK   57  A    between atoms: _150  and  _151
REMARK   58  A    between atoms: _153  and  _155
REMARK   59  A    between atoms: _155  and  _156
REMARK   60  A    between atoms: _155  and  _158
REMARK   61  A    between atoms: _158  and  _159
REMARK   62  A    between atoms: _162  and  _164
REMARK   63  A    between atoms: _164  and  _165
REMARK   64  A    between atoms: _164  and  _167
REMARK   65  A    between atoms: _167  and  _168
REMARK   66  A    between atoms: _168  and  _169
REMARK   67  A    between atoms: _169  and  _170
REMARK   68  A    between atoms: _179  and  _181
REMARK   69  A    between atoms: _181  and  _182
REMARK   70  A    between atoms: _181  and  _184
REMARK   71  A    between atoms: _184  and  _185
REMARK   72  A    between atoms: _190  and  _191
REMARK   73  A    between atoms: _193  and  _195
REMARK   74  A    between atoms: _195  and  _196
REMARK   75  A    between atoms: _195  and  _198
REMARK   76  A    between atoms: _198  and  _199
REMARK   77  A    between atoms: _199  and  _200
REMARK   78  A    between atoms: _205  and  _207
REMARK   79  A    between atoms: _207  and  _208
REMARK   80  A    between atoms: _207  and  _210
REMARK   81  A    between atoms: _210  and  _211
REMARK   82  A    between atoms: _217  and  _219
REMARK   83  A    between atoms: _219  and  _220
REMARK   84  A    between atoms: _219  and  _222
REMARK   85  A    between atoms: _222  and  _223
REMARK   86  A    between atoms: _223  and  _224
REMARK   87  A    between atoms: _224  and  _225
REMARK   88  A    between atoms: _235  and  _236
REMARK   89  A    between atoms: _241  and  _243
REMARK   90  A    between atoms: _243  and  _244
REMARK   91  A    between atoms: _243  and  _246
REMARK   92  A    between atoms: _246  and  _247
REMARK   93  A    between atoms: _249  and  _251
REMARK   94  A    between atoms: _251  and  _252
REMARK   95  A    between atoms: _251  and  _254
REMARK   96  A    between atoms: _254  and  _255
REMARK   97  A    between atoms: _260  and  _261
REMARK   98  A    between atoms: _263  and  _265
REMARK   99  A    between atoms: _265  and  _266
REMARK  100  A    between atoms: _265  and  _268
REMARK  101  A    between atoms: _268  and  _269
REMARK  102  A    between atoms: _272  and  _274
REMARK  103  A    between atoms: _274  and  _275
REMARK  104  A    between atoms: _277  and  _279
REMARK  105  A    between atoms: _279  and  _280
REMARK  106  A    between atoms: _279  and  _282
REMARK  107  A    between atoms: _282  and  _283
REMARK  108  A    between atoms: _286  and  _288
REMARK  109  A    between atoms: _288  and  _289
REMARK  110  A    between atoms: _288  and  _291
REMARK  111  A    between atoms: _291  and  _292
REMARK  112  A    between atoms: _302  and  _304
REMARK  113  A    between atoms: _304  and  _305
REMARK  114  A    between atoms: _304  and  _307
REMARK  115  A    between atoms: _307  and  _308
REMARK  116  A    between atoms: _308  and  _309
REMARK  117  A    between atoms: _309  and  _310
REMARK  118  A    between atoms: _310  and  _311
REMARK  119  A    between atoms: _316  and  _317
REMARK  120  A    between atoms: _322  and  _324
REMARK  121  A    between atoms: _324  and  _325
REMARK  122  A    between atoms: _324  and  _327
REMARK  123  A    between atoms: _327  and  _328
REMARK  124  A    between atoms: _331  and  _333
REMARK  125  A    between atoms: _333  and  _334
REMARK  126  A    between atoms: _333  and  _336
REMARK  127  A    between atoms: _336  and  _337
REMARK  128  A    between atoms: _342  and  _343
REMARK  129  A    between atoms: _345  and  _347
REMARK  130  A    between atoms: _347  and  _348
REMARK  131  A    between atoms: _347  and  _350
REMARK  132  A    between atoms: _350  and  _351
REMARK  133  A    between atoms: _353  and  _355
REMARK  134  A    between atoms: _355  and  _356
REMARK  135  A    between atoms: _359  and  _361
REMARK  136  A    between atoms: _361  and  _362
REMARK  137  A    between atoms: _361  and  _364
REMARK  138  A    between atoms: _364  and  _365
REMARK  139  A    between atoms: _365  and  _366
REMARK  140  A    between atoms: _368  and  _370
REMARK  141  A    between atoms: _370  and  _371
REMARK  142  A    between atoms: _370  and  _373
REMARK  143  A    between atoms: _373  and  _374
REMARK  144  A    between atoms: _374  and  _375
REMARK  145  A    between atoms: _380  and  _382
REMARK  146  A    between atoms: _382  and  _383
REMARK  147  A    between atoms: _382  and  _385
REMARK  148  A    between atoms: _385  and  _386
REMARK  149  A    between atoms: _389  and  _391
REMARK  150  A    between atoms: _391  and  _392
REMARK  151  A    between atoms: _391  and  _394
REMARK  152  A    between atoms: _394  and  _395
REMARK  153  A    between atoms: _400  and  _402
REMARK  154  A    between atoms: _402  and  _403
REMARK  155  A    between atoms: _402  and  _405
REMARK  156  A    between atoms: _405  and  _406
REMARK  157  A    between atoms: _409  and  _411
REMARK  158  A    between atoms: _411  and  _412
REMARK  159  A    between atoms: _411  and  _414
REMARK  160  A    between atoms: _414  and  _415
REMARK  161  A    between atoms: _415  and  _416
REMARK  162  A    between atoms: _416  and  _417
REMARK  163  A    between atoms: _426  and  _428
REMARK  164  A    between atoms: _428  and  _429
REMARK  165  A    between atoms: _428  and  _431
REMARK  166  A    between atoms: _431  and  _432
REMARK  167  A    between atoms: _437  and  _438
REMARK                            x       y       z     vdW  Elec       q    Type
REMARK                         _______ _______ _______ _____ _____    ______ ____
ROOT
ATOM      1  CA  ASP A   1     -14.959 -28.106  15.808  0.00  0.00    +0.144 C 
ENDROOT
BRANCH   1   2
ATOM      2  N   ASP A   1     -16.245 -28.139  15.127  0.00  0.00    -0.239 NA
ATOM      3  H   ASP A   1     -16.359 -27.671  14.205  0.00  0.00    +0.142 HD
ENDBRANCH   1   2
BRANCH   1   4
ATOM      4  C   ASP A   1     -14.992 -28.216  17.311  0.00  0.00    +0.225 C 
ATOM      5  O   ASP A   1     -14.216 -28.978  17.904  0.00  0.00    -0.287 OA
ENDBRANCH   1   4
BRANCH   1   6
ATOM      6  CB  ASP A   1     -14.238 -26.815  15.463  0.00  0.00    +0.139 C 
BRANCH   6   7
ATOM      7  CG  ASP A   1     -13.849 -26.790  14.046  0.00  0.00    +0.367 C 
ATOM      8  OD2 ASP A   1     -13.204 -25.807  13.567  0.00  0.00    -0.246 OA
ATOM      9  OD1 ASP A   1     -14.219 -27.804  13.407  0.00  0.00    -0.246 OA
ENDBRANCH   6   7
ENDBRANCH   1   6
TORSDOF 4
REMARK  Name = ../refined-set-2016/3wqm/3wqm_pocket.pdb
REMARK  167 active torsions:
REMARK  status: ('A' for Active; 'I' for Inactive)
REMARK    1  A    between atoms: _1  and  _3
REMARK    2  A    between atoms: _3  and  _4
REMARK    3  A    between atoms: _3  and  _6
REMARK    4  A    between atoms: _6  and  _7
REMARK    5  A    between atoms: _13  and  _15
REMARK    6  A    between atoms: _15  and  _16
REMARK    7  A    between atoms: _15  and  _18
REMARK    8  A    between atoms: _18  and  _19
REMARK    9  A    between atoms: _19  and  _21
REMARK   10  A    between atoms: _22  and  _24
REMARK   11  A    between atoms: _24  and  _25
REMARK   12  A    between atoms: _27  and  _29
REMARK   13  A    between atoms: _29  and  _30
REMARK   14  A    between atoms: _29  and  _32
REMARK   15  A    between atoms: _32  and  _33
REMARK   16  A    between atoms: _36  and  _38
REMARK   17  A    between atoms: _38  and  _39
REMARK   18  A    between atoms: _38  and  _41
REMARK   19  A    between atoms: _41  and  _42
REMARK   20  A    between atoms: _42  and  _43
REMARK   21  A    between atoms: _43  and  _44
REMARK   22  A    between atoms: _53  and  _55
REMARK   23  A    between atoms: _55  and  _56
REMARK   24  A    between atoms: _55  and  _58
REMARK   25  A    between atoms: _58  and  _59
REMARK   26  A    between atoms: _59  and  _60
REMARK   27  A    between atoms: _60  and  _61
REMARK   28  A    between atoms: _70  and  _72
REMARK   29  A    between atoms: _72  and  _73
REMARK   30  A    between atoms: _72  and  _75
REMARK   31  A    between atoms: _75  and  _76
REMARK   32  A    between atoms: _86  and  _88
REMARK   33  A    between atoms: _88  and  _89
REMARK   34  A    between atoms: _88  and  _91
REMARK   35  A    between atoms: _91  and  _92
REMARK   36  A    between atoms: _98  and  _100
REMARK   37  A    between atoms: _100  and  _101
REMARK   38  A    between atoms: _100  and  _103
REMARK   39  A    between atoms: _103  and  _104
REMARK   40  A    between atoms: _109  and  _111
REMARK   41  A    between atoms: _111  and  _112
REMARK   42  A    between atoms: _111  and  _114
REMARK   43  A    between atoms: _114  and  _115
REMARK   44  A    between atoms: _118  and  _120
REMARK   45  A    between atoms: _120  and  _121
REMARK   46  A    between atoms: _120  and  _123
REMARK   47  A    between atoms: _123  and  _124
REMARK   48  A    between atoms: _124  and  _125
REMARK   49  A    between atoms: _128  and  _130
REMARK   50  A    between atoms: _130  and  _131
REMARK   51  A    between atoms: _130  and  _133
REMARK   52  A    between atoms: _133  and  _134
REMARK   53  A    between atoms: _139  and  _141
REMARK   54  A    between atoms: _141  and  _142
REMARK   55  A    between atoms: _141  and  _144
REMARK   56  A    between atoms: _144  and  _145
REMARK   57  A    between atoms: _150  and  _151
REMARK   58  A    between atoms: _153  and  _155
REMARK   59  A    between atoms: _155  and  _156
REMARK   60  A    between atoms: _155  and  _158
REMARK   61  A    between atoms: _158  and  _159
REMARK   62  A    between atoms: _162  and  _164
REMARK   63  A    between atoms: _164  and  _165
REMARK   64  A    between atoms: _164  and  _167
REMARK   65  A    between atoms: _167  and  _168
REMARK   66  A    between atoms: _168  and  _169
REMARK   67  A    between atoms: _169  and  _170
REMARK   68  A    between atoms: _179  and  _181
REMARK   69  A    between atoms: _181  and  _182
REMARK   70  A    between atoms: _181  and  _184
REMARK   71  A    between atoms: _184  and  _185
REMARK   72  A    between atoms: _190  and  _191
REMARK   73  A    between atoms: _193  and  _195
REMARK   74  A    between atoms: _195  and  _196
REMARK   75  A    between atoms: _195  and  _198
REMARK   76  A    between atoms: _198  and  _199
REMARK   77  A    between atoms: _199  and  _200
REMARK   78  A    between atoms: _205  and  _207
REMARK   79  A    between atoms: _207  and  _208
REMARK   80  A    between atoms: _207  and  _210
REMARK   81  A    between atoms: _210  and  _211
REMARK   82  A    between atoms: _217  and  _219
REMARK   83  A    between atoms: _219  and  _220
REMARK   84  A    between atoms: _219  and  _222
REMARK   85  A    between atoms: _222  and  _223
REMARK   86  A    between atoms: _223  and  _224
REMARK   87  A    between atoms: _224  and  _225
REMARK   88  A    between atoms: _235  and  _236
REMARK   89  A    between atoms: _241  and  _243
REMARK   90  A    between atoms: _243  and  _244
REMARK   91  A    between atoms: _243  and  _246
REMARK   92  A    between atoms: _246  and  _247
REMARK   93  A    between atoms: _249  and  _251
REMARK   94  A    between atoms: _251  and  _252
REMARK   95  A    between atoms: _251  and  _254
REMARK   96  A    between atoms: _254  and  _255
REMARK   97  A    between atoms: _260  and  _261
REMARK   98  A    between atoms: _263  and  _265
REMARK   99  A    between atoms: _265  and  _266
REMARK  100  A    between atoms: _265  and  _268
REMARK  101  A    between atoms: _268  and  _269
REMARK  102  A    between atoms: _272  and  _274
REMARK  103  A    between atoms: _274  and  _275
REMARK  104  A    between atoms: _277  and  _279
REMARK  105  A    between atoms: _279  and  _280
REMARK  106  A    between atoms: _279  and  _282
REMARK  107  A    between atoms: _282  and  _283
REMARK  108  A    between atoms: _286  and  _288
REMARK  109  A    between atoms: _288  and  _289
REMARK  110  A    between atoms: _288  and  _291
REMARK  111  A    between atoms: _291  and  _292
REMARK  112  A    between atoms: _302  and  _304
REMARK  113  A    between atoms: _304  and  _305
REMARK  114  A    between atoms: _304  and  _307
REMARK  115  A    between atoms: _307  and  _308
REMARK  116  A    between atoms: _308  and  _309
REMARK  117  A    between atoms: _309  and  _310
REMARK  118  A    between atoms: _310  and  _311
REMARK  119  A    between atoms: _316  and  _317
REMARK  120  A    between atoms: _322  and  _324
REMARK  121  A    between atoms: _324  and  _325
REMARK  122  A    between atoms: _324  and  _327
REMARK  123  A    between atoms: _327  and  _328
REMARK  124  A    between atoms: _331  and  _333
REMARK  125  A    between atoms: _333  and  _334
REMARK  126  A    between atoms: _333  and  _336
REMARK  127  A    between atoms: _336  and  _337
REMARK  128  A    between atoms: _342  and  _343
REMARK  129  A    between atoms: _345  and  _347
REMARK  130  A    between atoms: _347  and  _348
REMARK  131  A    between atoms: _347  and  _350
REMARK  132  A    between atoms: _350  and  _351
REMARK  133  A    between atoms: _353  and  _355
REMARK  134  A    between atoms: _355  and  _356
REMARK  135  A    between atoms: _359  and  _361
REMARK  136  A    between atoms: _361  and  _362
REMARK  137  A    between atoms: _361  and  _364
REMARK  138  A    between atoms: _364  and  _365
REMARK  139  A    between atoms: _365  and  _366
REMARK  140  A    between atoms: _368  and  _370
REMARK  141  A    between atoms: _370  and  _371
REMARK  142  A    between atoms: _370  and  _373
REMARK  143  A    between atoms: _373  and  _374
REMARK  144  A    between atoms: _374  and  _375
REMARK  145  A    between atoms: _380  and  _382
REMARK  146  A    between atoms: _382  and  _383
REMARK  147  A    between atoms: _382  and  _385
REMARK  148  A    between atoms: _385  and  _386
REMARK  149  A    between atoms: _389  and  _391
REMARK  150  A    between atoms: _391  and  _392
REMARK  151  A    between atoms: _391  and  _394
REMARK  152  A    between atoms: _394  and  _395
REMARK  153  A    between atoms: _400  and  _402
REMARK  154  A    between atoms: _402  and  _403
REMARK  155  A    between atoms: _402  and  _405
REMARK  156  A    between atoms: _405  and  _406
REMARK  157  A    between atoms: _409  and  _411
REMARK  158  A    between atoms: _411  and  _412
REMARK  159  A    between atoms: _411  and  _414
REMARK  160  A    between atoms: _414  and  _415
REMARK  161  A    between atoms: _415  and  _416
REMARK  162  A    between atoms: _416  and  _417
REMARK  163  A    between atoms: _426  and  _428
REMARK  164  A    between atoms: _428  and  _429
REMARK  165  A    between atoms: _428  and  _431
REMARK  166  A    between atoms: _431  and  _432
REMARK  167  A    between atoms: _437  and  _438
REMARK                            x       y       z     vdW  Elec       q    Type
REMARK                         _______ _______ _______ _____ _____    ______ ____
ROOT
ATOM      1  NE  ARG A   1      -9.823 -26.163  20.133  0.00  0.00    -0.265 N 
ATOM      2  CZ  ARG A   1      -8.567 -25.722  20.142  0.00  0.00    +0.342 C 
ATOM      3  NH2 ARG A   1      -7.761 -26.042  21.146  0.00  0.00    -0.292 N 
ATOM      4 HH21 ARG A   1      -8.111 -26.636  21.924  0.00  0.00    +0.255 HD
ATOM      5 HH22 ARG A   1      -6.779 -25.698  21.155  0.00  0.00    +0.255 HD
ATOM      6  NH1 ARG A   1      -8.112 -24.964  19.151  0.00  0.00    -0.292 N 
ATOM      7 HH11 ARG A   1      -7.129 -24.624  19.166  0.00  0.00    +0.255 HD
ATOM      8 HH12 ARG A   1      -8.738 -24.711  18.360  0.00  0.00    +0.255 HD
ATOM      9  HE  ARG A   1     -10.431 -25.895  19.333  0.00  0.00    +0.259 HD
ENDROOT
BRANCH   1  10
ATOM     10  CD  ARG A   1     -10.396 -27.002  21.183  0.00  0.00    +0.174 C 
BRANCH  10  11
ATOM     11  CG  ARG A   1     -11.879 -27.277  20.971  0.00  0.00    +0.045 C 
BRANCH  11  12
ATOM     12  CB  ARG A   1     -12.483 -28.009  22.163  0.00  0.00    +0.029 C 
BRANCH  12  13
ATOM     13  CA  ARG A   1     -12.107 -29.490  22.233  0.00  0.00    +0.133 C 
BRANCH  13  14
ATOM     14  N   ARG A   1     -12.917 -30.259  21.297  0.00  0.00    -0.239 NA
ATOM     15  H   ARG A   1     -13.947 -30.114  21.278  0.00  0.00    +0.142 HD
ENDBRANCH  13  14
BRANCH  13  16
ATOM     16  C   ARG A   1     -12.370 -30.057  23.634  0.00  0.00    +0.224 C 
ATOM     17  O   ARG A   1     -13.184 -30.967  23.789  0.00  0.00    -0.287 OA
ENDBRANCH  13  16
ENDBRANCH  12  13
ENDBRANCH  11  12
ENDBRANCH  10  11
ENDBRANCH   1  10
TORSDOF 6
REMARK  Name = ../refined-set-2016/3wqm/3wqm_pocket.pdb
REMARK  167 active torsions:
REMARK  status: ('A' for Active; 'I' for Inactive)
REMARK    1  A    between atoms: _1  and  _3
REMARK    2  A    between atoms: _3  and  _4
REMARK    3  A    between atoms: _3  and  _6
REMARK    4  A    between atoms: _6  and  _7
REMARK    5  A    between atoms: _13  and  _15
REMARK    6  A    between atoms: _15  and  _16
REMARK    7  A    between atoms: _15  and  _18
REMARK    8  A    between atoms: _18  and  _19
REMARK    9  A    between atoms: _19  and  _21
REMARK   10  A    between atoms: _22  and  _24
REMARK   11  A    between atoms: _24  and  _25
REMARK   12  A    between atoms: _27  and  _29
REMARK   13  A    between atoms: _29  and  _30
REMARK   14  A    between atoms: _29  and  _32
REMARK   15  A    between atoms: _32  and  _33
REMARK   16  A    between atoms: _36  and  _38
REMARK   17  A    between atoms: _38  and  _39
REMARK   18  A    between atoms: _38  and  _41
REMARK   19  A    between atoms: _41  and  _42
REMARK   20  A    between atoms: _42  and  _43
REMARK   21  A    between atoms: _43  and  _44
REMARK   22  A    between atoms: _53  and  _55
REMARK   23  A    between atoms: _55  and  _56
REMARK   24  A    between atoms: _55  and  _58
REMARK   25  A    between atoms: _58  and  _59
REMARK   26  A    between atoms: _59  and  _60
REMARK   27  A    between atoms: _60  and  _61
REMARK   28  A    between atoms: _70  and  _72
REMARK   29  A    between atoms: _72  and  _73
REMARK   30  A    between atoms: _72  and  _75
REMARK   31  A    between atoms: _75  and  _76
REMARK   32  A    between atoms: _86  and  _88
REMARK   33  A    between atoms: _88  and  _89
REMARK   34  A    between atoms: _88  and  _91
REMARK   35  A    between atoms: _91  and  _92
REMARK   36  A    between atoms: _98  and  _100
REMARK   37  A    between atoms: _100  and  _101
REMARK   38  A    between atoms: _100  and  _103
REMARK   39  A    between atoms: _103  and  _104
REMARK   40  A    between atoms: _109  and  _111
REMARK   41  A    between atoms: _111  and  _112
REMARK   42  A    between atoms: _111  and  _114
REMARK   43  A    between atoms: _114  and  _115
REMARK   44  A    between atoms: _118  and  _120
REMARK   45  A    between atoms: _120  and  _121
REMARK   46  A    between atoms: _120  and  _123
REMARK   47  A    between atoms: _123  and  _124
REMARK   48  A    between atoms: _124  and  _125
REMARK   49  A    between atoms: _128  and  _130
REMARK   50  A    between atoms: _130  and  _131
REMARK   51  A    between atoms: _130  and  _133
REMARK   52  A    between atoms: _133  and  _134
REMARK   53  A    between atoms: _139  and  _141
REMARK   54  A    between atoms: _141  and  _142
REMARK   55  A    between atoms: _141  and  _144
REMARK   56  A    between atoms: _144  and  _145
REMARK   57  A    between atoms: _150  and  _151
REMARK   58  A    between atoms: _153  and  _155
REMARK   59  A    between atoms: _155  and  _156
REMARK   60  A    between atoms: _155  and  _158
REMARK   61  A    between atoms: _158  and  _159
REMARK   62  A    between atoms: _162  and  _164
REMARK   63  A    between atoms: _164  and  _165
REMARK   64  A    between atoms: _164  and  _167
REMARK   65  A    between atoms: _167  and  _168
REMARK   66  A    between atoms: _168  and  _169
REMARK   67  A    between atoms: _169  and  _170
REMARK   68  A    between atoms: _179  and  _181
REMARK   69  A    between atoms: _181  and  _182
REMARK   70  A    between atoms: _181  and  _184
REMARK   71  A    between atoms: _184  and  _185
REMARK   72  A    between atoms: _190  and  _191
REMARK   73  A    between atoms: _193  and  _195
REMARK   74  A    between atoms: _195  and  _196
REMARK   75  A    between atoms: _195  and  _198
REMARK   76  A    between atoms: _198  and  _199
REMARK   77  A    between atoms: _199  and  _200
REMARK   78  A    between atoms: _205  and  _207
REMARK   79  A    between atoms: _207  and  _208
REMARK   80  A    between atoms: _207  and  _210
REMARK   81  A    between atoms: _210  and  _211
REMARK   82  A    between atoms: _217  and  _219
REMARK   83  A    between atoms: _219  and  _220
REMARK   84  A    between atoms: _219  and  _222
REMARK   85  A    between atoms: _222  and  _223
REMARK   86  A    between atoms: _223  and  _224
REMARK   87  A    between atoms: _224  and  _225
REMARK   88  A    between atoms: _235  and  _236
REMARK   89  A    between atoms: _241  and  _243
REMARK   90  A    between atoms: _243  and  _244
REMARK   91  A    between atoms: _243  and  _246
REMARK   92  A    between atoms: _246  and  _247
REMARK   93  A    between atoms: _249  and  _251
REMARK   94  A    between atoms: _251  and  _252
REMARK   95  A    between atoms: _251  and  _254
REMARK   96  A    between atoms: _254  and  _255
REMARK   97  A    between atoms: _260  and  _261
REMARK   98  A    between atoms: _263  and  _265
REMARK   99  A    between atoms: _265  and  _266
REMARK  100  A    between atoms: _265  and  _268
REMARK  101  A    between atoms: _268  and  _269
REMARK  102  A    between atoms: _272  and  _274
REMARK  103  A    between atoms: _274  and  _275
REMARK  104  A    between atoms: _277  and  _279
REMARK  105  A    between atoms: _279  and  _280
REMARK  106  A    between atoms: _279  and  _282
REMARK  107  A    between atoms: _282  and  _283
REMARK  108  A    between atoms: _286  and  _288
REMARK  109  A    between atoms: _288  and  _289
REMARK  110  A    between atoms: _288  and  _291
REMARK  111  A    between atoms: _291  and  _292
REMARK  112  A    between atoms: _302  and  _304
REMARK  113  A    between atoms: _304  and  _305
REMARK  114  A    between atoms: _304  and  _307
REMARK  115  A    between atoms: _307  and  _308
REMARK  116  A    between atoms: _308  and  _309
REMARK  117  A    between atoms: _309  and  _310
REMARK  118  A    between atoms: _310  and  _311
REMARK  119  A    between atoms: _316  and  _317
REMARK  120  A    between atoms: _322  and  _324
REMARK  121  A    between atoms: _324  and  _325
REMARK  122  A    between atoms: _324  and  _327
REMARK  123  A    between atoms: _327  and  _328
REMARK  124  A    between atoms: _331  and  _333
REMARK  125  A    between atoms: _333  and  _334
REMARK  126  A    between atoms: _333  and  _336
REMARK  127  A    between atoms: _336  and  _337
REMARK  128  A    between atoms: _342  and  _343
REMARK  129  A    between atoms: _345  and  _347
REMARK  130  A    between atoms: _347  and  _348
REMARK  131  A    between atoms: _347  and  _350
REMARK  132  A    between atoms: _350  and  _351
REMARK  133  A    between atoms: _353  and  _355
REMARK  134  A    between atoms: _355  and  _356
REMARK  135  A    between atoms: _359  and  _361
REMARK  136  A    between atoms: _361  and  _362
REMARK  137  A    between atoms: _361  and  _364
REMARK  138  A    between atoms: _364  and  _365
REMARK  139  A    between atoms: _365  and  _366
REMARK  140  A    between atoms: _368  and  _370
REMARK  141  A    between atoms: _370  and  _371
REMARK  142  A    between atoms: _370  and  _373
REMARK  143  A    between atoms: _373  and  _374
REMARK  144  A    between atoms: _374  and  _375
REMARK  145  A    between atoms: _380  and  _382
REMARK  146  A    between atoms: _382  and  _383
REMARK  147  A    between atoms: _382  and  _385
REMARK  148  A    between atoms: _385  and  _386
REMARK  149  A    between atoms: _389  and  _391
REMARK  150  A    between atoms: _391  and  _392
REMARK  151  A    between atoms: _391  and  _394
REMARK  152  A    between atoms: _394  and  _395
REMARK  153  A    between atoms: _400  and  _402
REMARK  154  A    between atoms: _402  and  _403
REMARK  155  A    between atoms: _402  and  _405
REMARK  156  A    between atoms: _405  and  _406
REMARK  157  A    between atoms: _409  and  _411
REMARK  158  A    between atoms: _411  and  _412
REMARK  159  A    between atoms: _411  and  _414
REMARK  160  A    between atoms: _414  and  _415
REMARK  161  A    between atoms: _415  and  _416
REMARK  162  A    between atoms: _416  and  _417
REMARK  163  A    between atoms: _426  and  _428
REMARK  164  A    between atoms: _428  and  _429
REMARK  165  A    between atoms: _428  and  _431
REMARK  166  A    between atoms: _431  and  _432
REMARK  167  A    between atoms: _437  and  _438
REMARK                            x       y       z     vdW  Elec       q    Type
REMARK                         _______ _______ _______ _____ _____    ______ ____
ROOT
ATOM      1  CG  TYR A   1     -13.399 -25.279  24.470  0.00  0.00    -0.020 A 
ATOM      2  CD2 TYR A   1     -12.501 -24.216  24.354  0.00  0.00    -0.001 A 
ATOM      3  CE2 TYR A   1     -12.402 -23.481  23.173  0.00  0.00    +0.036 A 
ATOM      4  CZ  TYR A   1     -13.212 -23.808  22.097  0.00  0.00    +0.134 A 
ATOM      5  CE1 TYR A   1     -14.122 -24.849  22.193  0.00  0.00    +0.036 A 
ATOM      6  CD1 TYR A   1     -14.212 -25.576  23.376  0.00  0.00    -0.001 A 
ENDROOT
BRANCH   4   7
ATOM      7  OH  TYR A   1     -13.083 -23.127  20.912  0.00  0.00    -0.506 OA
ATOM      8  HH  TYR A   1     -12.397 -22.420  21.012  0.00  0.00    +0.292 HD
ENDBRANCH   4   7
BRANCH   1   9
ATOM      9  CB  TYR A   1     -13.411 -26.155  25.703  0.00  0.00    +0.051 C 
BRANCH   9  10
ATOM     10  CA  TYR A   1     -14.442 -25.815  26.779  0.00  0.00    +0.137 C 
BRANCH  10  11
ATOM     11  N   TYR A   1     -14.238 -26.707  27.915  0.00  0.00    -0.239 NA
ATOM     12  H   TYR A   1     -13.574 -27.499  27.804  0.00  0.00    +0.142 HD
ENDBRANCH  10  11
BRANCH  10  13
ATOM     13  C   TYR A   1     -15.856 -26.041  26.248  0.00  0.00    +0.224 C 
ATOM     14  O   TYR A   1     -16.529 -25.106  25.819  0.00  0.00    -0.287 OA
ENDBRANCH  10  13
ENDBRANCH   9  10
ENDBRANCH   1   9
TORSDOF 5
REMARK  Name = ../refined-set-2016/3wqm/3wqm_pocket.pdb
REMARK  167 active torsions:
REMARK  status: ('A' for Active; 'I' for Inactive)
REMARK    1  A    between atoms: _1  and  _3
REMARK    2  A    between atoms: _3  and  _4
REMARK    3  A    between atoms: _3  and  _6
REMARK    4  A    between atoms: _6  and  _7
REMARK    5  A    between atoms: _13  and  _15
REMARK    6  A    between atoms: _15  and  _16
REMARK    7  A    between atoms: _15  and  _18
REMARK    8  A    between atoms: _18  and  _19
REMARK    9  A    between atoms: _19  and  _21
REMARK   10  A    between atoms: _22  and  _24
REMARK   11  A    between atoms: _24  and  _25
REMARK   12  A    between atoms: _27  and  _29
REMARK   13  A    between atoms: _29  and  _30
REMARK   14  A    between atoms: _29  and  _32
REMARK   15  A    between atoms: _32  and  _33
REMARK   16  A    between atoms: _36  and  _38
REMARK   17  A    between atoms: _38  and  _39
REMARK   18  A    between atoms: _38  and  _41
REMARK   19  A    between atoms: _41  and  _42
REMARK   20  A    between atoms: _42  and  _43
REMARK   21  A    between atoms: _43  and  _44
REMARK   22  A    between atoms: _53  and  _55
REMARK   23  A    between atoms: _55  and  _56
REMARK   24  A    between atoms: _55  and  _58
REMARK   25  A    between atoms: _58  and  _59
REMARK   26  A    between atoms: _59  and  _60
REMARK   27  A    between atoms: _60  and  _61
REMARK   28  A    between atoms: _70  and  _72
REMARK   29  A    between atoms: _72  and  _73
REMARK   30  A    between atoms: _72  and  _75
REMARK   31  A    between atoms: _75  and  _76
REMARK   32  A    between atoms: _86  and  _88
REMARK   33  A    between atoms: _88  and  _89
REMARK   34  A    between atoms: _88  and  _91
REMARK   35  A    between atoms: _91  and  _92
REMARK   36  A    between atoms: _98  and  _100
REMARK   37  A    between atoms: _100  and  _101
REMARK   38  A    between atoms: _100  and  _103
REMARK   39  A    between atoms: _103  and  _104
REMARK   40  A    between atoms: _109  and  _111
REMARK   41  A    between atoms: _111  and  _112
REMARK   42  A    between atoms: _111  and  _114
REMARK   43  A    between atoms: _114  and  _115
REMARK   44  A    between atoms: _118  and  _120
REMARK   45  A    between atoms: _120  and  _121
REMARK   46  A    between atoms: _120  and  _123
REMARK   47  A    between atoms: _123  and  _124
REMARK   48  A    between atoms: _124  and  _125
REMARK   49  A    between atoms: _128  and  _130
REMARK   50  A    between atoms: _130  and  _131
REMARK   51  A    between atoms: _130  and  _133
REMARK   52  A    between atoms: _133  and  _134
REMARK   53  A    between atoms: _139  and  _141
REMARK   54  A    between atoms: _141  and  _142
REMARK   55  A    between atoms: _141  and  _144
REMARK   56  A    between atoms: _144  and  _145
REMARK   57  A    between atoms: _150  and  _151
REMARK   58  A    between atoms: _153  and  _155
REMARK   59  A    between atoms: _155  and  _156
REMARK   60  A    between atoms: _155  and  _158
REMARK   61  A    between atoms: _158  and  _159
REMARK   62  A    between atoms: _162  and  _164
REMARK   63  A    between atoms: _164  and  _165
REMARK   64  A    between atoms: _164  and  _167
REMARK   65  A    between atoms: _167  and  _168
REMARK   66  A    between atoms: _168  and  _169
REMARK   67  A    between atoms: _169  and  _170
REMARK   68  A    between atoms: _179  and  _181
REMARK   69  A    between atoms: _181  and  _182
REMARK   70  A    between atoms: _181  and  _184
REMARK   71  A    between atoms: _184  and  _185
REMARK   72  A    between atoms: _190  and  _191
REMARK   73  A    between atoms: _193  and  _195
REMARK   74  A    between atoms: _195  and  _196
REMARK   75  A    between atoms: _195  and  _198
REMARK   76  A    between atoms: _198  and  _199
REMARK   77  A    between atoms: _199  and  _200
REMARK   78  A    between atoms: _205  and  _207
REMARK   79  A    between atoms: _207  and  _208
REMARK   80  A    between atoms: _207  and  _210
REMARK   81  A    between atoms: _210  and  _211
REMARK   82  A    between atoms: _217  and  _219
REMARK   83  A    between atoms: _219  and  _220
REMARK   84  A    between atoms: _219  and  _222
REMARK   85  A    between atoms: _222  and  _223
REMARK   86  A    between atoms: _223  and  _224
REMARK   87  A    between atoms: _224  and  _225
REMARK   88  A    between atoms: _235  and  _236
REMARK   89  A    between atoms: _241  and  _243
REMARK   90  A    between atoms: _243  and  _244
REMARK   91  A    between atoms: _243  and  _246
REMARK   92  A    between atoms: _246  and  _247
REMARK   93  A    between atoms: _249  and  _251
REMARK   94  A    between atoms: _251  and  _252
REMARK   95  A    between atoms: _251  and  _254
REMARK   96  A    between atoms: _254  and  _255
REMARK   97  A    between atoms: _260  and  _261
REMARK   98  A    between atoms: _263  and  _265
REMARK   99  A    between atoms: _265  and  _266
REMARK  100  A    between atoms: _265  and  _268
REMARK  101  A    between atoms: _268  and  _269
REMARK  102  A    between atoms: _272  and  _274
REMARK  103  A    between atoms: _274  and  _275
REMARK  104  A    between atoms: _277  and  _279
REMARK  105  A    between atoms: _279  and  _280
REMARK  106  A    between atoms: _279  and  _282
REMARK  107  A    between atoms: _282  and  _283
REMARK  108  A    between atoms: _286  and  _288
REMARK  109  A    between atoms: _288  and  _289
REMARK  110  A    between atoms: _288  and  _291
REMARK  111  A    between atoms: _291  and  _292
REMARK  112  A    between atoms: _302  and  _304
REMARK  113  A    between atoms: _304  and  _305
REMARK  114  A    between atoms: _304  and  _307
REMARK  115  A    between atoms: _307  and  _308
REMARK  116  A    between atoms: _308  and  _309
REMARK  117  A    between atoms: _309  and  _310
REMARK  118  A    between atoms: _310  and  _311
REMARK  119  A    between atoms: _316  and  _317
REMARK  120  A    between atoms: _322  and  _324
REMARK  121  A    between atoms: _324  and  _325
REMARK  122  A    between atoms: _324  and  _327
REMARK  123  A    between atoms: _327  and  _328
REMARK  124  A    between atoms: _331  and  _333
REMARK  125  A    between atoms: _333  and  _334
REMARK  126  A    between atoms: _333  and  _336
REMARK  127  A    between atoms: _336  and  _337
REMARK  128  A    between atoms: _342  and  _343
REMARK  129  A    between atoms: _345  and  _347
REMARK  130  A    between atoms: _347  and  _348
REMARK  131  A    between atoms: _347  and  _350
REMARK  132  A    between atoms: _350  and  _351
REMARK  133  A    between atoms: _353  and  _355
REMARK  134  A    between atoms: _355  and  _356
REMARK  135  A    between atoms: _359  and  _361
REMARK  136  A    between atoms: _361  and  _362
REMARK  137  A    between atoms: _361  and  _364
REMARK  138  A    between atoms: _364  and  _365
REMARK  139  A    between atoms: _365  and  _366
REMARK  140  A    between atoms: _368  and  _370
REMARK  141  A    between atoms: _370  and  _371
REMARK  142  A    between atoms: _370  and  _373
REMARK  143  A    between atoms: _373  and  _374
REMARK  144  A    between atoms: _374  and  _375
REMARK  145  A    between atoms: _380  and  _382
REMARK  146  A    between atoms: _382  and  _383
REMARK  147  A    between atoms: _382  and  _385
REMARK  148  A    between atoms: _385  and  _386
REMARK  149  A    between atoms: _389  and  _391
REMARK  150  A    between atoms: _391  and  _392
REMARK  151  A    between atoms: _391  and  _394
REMARK  152  A    between atoms: _394  and  _395
REMARK  153  A    between atoms: _400  and  _402
REMARK  154  A    between atoms: _402  and  _403
REMARK  155  A    between atoms: _402  and  _405
REMARK  156  A    between atoms: _405  and  _406
REMARK  157  A    between atoms: _409  and  _411
REMARK  158  A    between atoms: _411  and  _412
REMARK  159  A    between atoms: _411  and  _414
REMARK  160  A    between atoms: _414  and  _415
REMARK  161  A    between atoms: _415  and  _416
REMARK  162  A    between atoms: _416  and  _417
REMARK  163  A    between atoms: _426  and  _428
REMARK  164  A    between atoms: _428  and  _429
REMARK  165  A    between atoms: _428  and  _431
REMARK  166  A    between atoms: _431  and  _432
REMARK  167  A    between atoms: _437  and  _438
REMARK                            x       y       z     vdW  Elec       q    Type
REMARK                         _______ _______ _______ _____ _____    ______ ____
ROOT
ATOM      1  CB  GLN A   1     -16.831 -22.788  28.224  0.00  0.00    +0.035 C 
ENDROOT
BRANCH   1   2
ATOM      2  CA  GLN A   1     -18.284 -23.162  28.511  0.00  0.00    +0.134 C 
BRANCH   2   3
ATOM      3  N   GLN A   1     -18.380 -24.603  28.697  0.00  0.00    -0.239 NA
ATOM      4  H   GLN A   1     -17.505 -25.165  28.700  0.00  0.00    +0.142 HD
ENDBRANCH   2   3
BRANCH   2   5
ATOM      5  C   GLN A   1     -19.174 -22.713  27.351  0.00  0.00    +0.224 C 
ATOM      6  O   GLN A   1     -19.868 -21.699  27.441  0.00  0.00    -0.287 OA
ENDBRANCH   2   5
ENDBRANCH   1   2
BRANCH   1   7
ATOM      7  CG  GLN A   1     -16.195 -21.891  29.260  0.00  0.00    +0.087 C 
BRANCH   7   8
ATOM      8  CD  GLN A   1     -14.687 -21.866  29.135  0.00  0.00    +0.219 C 
ATOM      9  OE1 GLN A   1     -14.008 -22.832  29.488  0.00  0.00    -0.275 OA
ATOM     10  NE2 GLN A   1     -14.154 -20.765  28.616  0.00  0.00    -0.329 N 
ATOM     11 HE21 GLN A   1     -13.124 -20.694  28.494  0.00  0.00    +0.145 HD
ATOM     12 HE22 GLN A   1     -14.767 -19.974  28.332  0.00  0.00    +0.145 HD
ENDBRANCH   7   8
ENDBRANCH   1   7
TORSDOF 5
REMARK  Name = ../refined-set-2016/3wqm/3wqm_pocket.pdb
REMARK  167 active torsions:
REMARK  status: ('A' for Active; 'I' for Inactive)
REMARK    1  A    between atoms: _1  and  _3
REMARK    2  A    between atoms: _3  and  _4
REMARK    3  A    between atoms: _3  and  _6
REMARK    4  A    between atoms: _6  and  _7
REMARK    5  A    between atoms: _13  and  _15
REMARK    6  A    between atoms: _15  and  _16
REMARK    7  A    between atoms: _15  and  _18
REMARK    8  A    between atoms: _18  and  _19
REMARK    9  A    between atoms: _19  and  _21
REMARK   10  A    between atoms: _22  and  _24
REMARK   11  A    between atoms: _24  and  _25
REMARK   12  A    between atoms: _27  and  _29
REMARK   13  A    between atoms: _29  and  _30
REMARK   14  A    between atoms: _29  and  _32
REMARK   15  A    between atoms: _32  and  _33
REMARK   16  A    between atoms: _36  and  _38
REMARK   17  A    between atoms: _38  and  _39
REMARK   18  A    between atoms: _38  and  _41
REMARK   19  A    between atoms: _41  and  _42
REMARK   20  A    between atoms: _42  and  _43
REMARK   21  A    between atoms: _43  and  _44
REMARK   22  A    between atoms: _53  and  _55
REMARK   23  A    between atoms: _55  and  _56
REMARK   24  A    between atoms: _55  and  _58
REMARK   25  A    between atoms: _58  and  _59
REMARK   26  A    between atoms: _59  and  _60
REMARK   27  A    between atoms: _60  and  _61
REMARK   28  A    between atoms: _70  and  _72
REMARK   29  A    between atoms: _72  and  _73
REMARK   30  A    between atoms: _72  and  _75
REMARK   31  A    between atoms: _75  and  _76
REMARK   32  A    between atoms: _86  and  _88
REMARK   33  A    between atoms: _88  and  _89
REMARK   34  A    between atoms: _88  and  _91
REMARK   35  A    between atoms: _91  and  _92
REMARK   36  A    between atoms: _98  and  _100
REMARK   37  A    between atoms: _100  and  _101
REMARK   38  A    between atoms: _100  and  _103
REMARK   39  A    between atoms: _103  and  _104
REMARK   40  A    between atoms: _109  and  _111
REMARK   41  A    between atoms: _111  and  _112
REMARK   42  A    between atoms: _111  and  _114
REMARK   43  A    between atoms: _114  and  _115
REMARK   44  A    between atoms: _118  and  _120
REMARK   45  A    between atoms: _120  and  _121
REMARK   46  A    between atoms: _120  and  _123
REMARK   47  A    between atoms: _123  and  _124
REMARK   48  A    between atoms: _124  and  _125
REMARK   49  A    between atoms: _128  and  _130
REMARK   50  A    between atoms: _130  and  _131
REMARK   51  A    between atoms: _130  and  _133
REMARK   52  A    between atoms: _133  and  _134
REMARK   53  A    between atoms: _139  and  _141
REMARK   54  A    between atoms: _141  and  _142
REMARK   55  A    between atoms: _141  and  _144
REMARK   56  A    between atoms: _144  and  _145
REMARK   57  A    between atoms: _150  and  _151
REMARK   58  A    between atoms: _153  and  _155
REMARK   59  A    between atoms: _155  and  _156
REMARK   60  A    between atoms: _155  and  _158
REMARK   61  A    between atoms: _158  and  _159
REMARK   62  A    between atoms: _162  and  _164
REMARK   63  A    between atoms: _164  and  _165
REMARK   64  A    between atoms: _164  and  _167
REMARK   65  A    between atoms: _167  and  _168
REMARK   66  A    between atoms: _168  and  _169
REMARK   67  A    between atoms: _169  and  _170
REMARK   68  A    between atoms: _179  and  _181
REMARK   69  A    between atoms: _181  and  _182
REMARK   70  A    between atoms: _181  and  _184
REMARK   71  A    between atoms: _184  and  _185
REMARK   72  A    between atoms: _190  and  _191
REMARK   73  A    between atoms: _193  and  _195
REMARK   74  A    between atoms: _195  and  _196
REMARK   75  A    between atoms: _195  and  _198
REMARK   76  A    between atoms: _198  and  _199
REMARK   77  A    between atoms: _199  and  _200
REMARK   78  A    between atoms: _205  and  _207
REMARK   79  A    between atoms: _207  and  _208
REMARK   80  A    between atoms: _207  and  _210
REMARK   81  A    between atoms: _210  and  _211
REMARK   82  A    between atoms: _217  and  _219
REMARK   83  A    between atoms: _219  and  _220
REMARK   84  A    between atoms: _219  and  _222
REMARK   85  A    between atoms: _222  and  _223
REMARK   86  A    between atoms: _223  and  _224
REMARK   87  A    between atoms: _224  and  _225
REMARK   88  A    between atoms: _235  and  _236
REMARK   89  A    between atoms: _241  and  _243
REMARK   90  A    between atoms: _243  and  _244
REMARK   91  A    between atoms: _243  and  _246
REMARK   92  A    between atoms: _246  and  _247
REMARK   93  A    between atoms: _249  and  _251
REMARK   94  A    between atoms: _251  and  _252
REMARK   95  A    between atoms: _251  and  _254
REMARK   96  A    between atoms: _254  and  _255
REMARK   97  A    between atoms: _260  and  _261
REMARK   98  A    between atoms: _263  and  _265
REMARK   99  A    between atoms: _265  and  _266
REMARK  100  A    between atoms: _265  and  _268
REMARK  101  A    between atoms: _268  and  _269
REMARK  102  A    between atoms: _272  and  _274
REMARK  103  A    between atoms: _274  and  _275
REMARK  104  A    between atoms: _277  and  _279
REMARK  105  A    between atoms: _279  and  _280
REMARK  106  A    between atoms: _279  and  _282
REMARK  107  A    between atoms: _282  and  _283
REMARK  108  A    between atoms: _286  and  _288
REMARK  109  A    between atoms: _288  and  _289
REMARK  110  A    between atoms: _288  and  _291
REMARK  111  A    between atoms: _291  and  _292
REMARK  112  A    between atoms: _302  and  _304
REMARK  113  A    between atoms: _304  and  _305
REMARK  114  A    between atoms: _304  and  _307
REMARK  115  A    between atoms: _307  and  _308
REMARK  116  A    between atoms: _308  and  _309
REMARK  117  A    between atoms: _309  and  _310
REMARK  118  A    between atoms: _310  and  _311
REMARK  119  A    between atoms: _316  and  _317
REMARK  120  A    between atoms: _322  and  _324
REMARK  121  A    between atoms: _324  and  _325
REMARK  122  A    between atoms: _324  and  _327
REMARK  123  A    between atoms: _327  and  _328
REMARK  124  A    between atoms: _331  and  _333
REMARK  125  A    between atoms: _333  and  _334
REMARK  126  A    between atoms: _333  and  _336
REMARK  127  A    between atoms: _336  and  _337
REMARK  128  A    between atoms: _342  and  _343
REMARK  129  A    between atoms: _345  and  _347
REMARK  130  A    between atoms: _347  and  _348
REMARK  131  A    between atoms: _347  and  _350
REMARK  132  A    between atoms: _350  and  _351
REMARK  133  A    between atoms: _353  and  _355
REMARK  134  A    between atoms: _355  and  _356
REMARK  135  A    between atoms: _359  and  _361
REMARK  136  A    between atoms: _361  and  _362
REMARK  137  A    between atoms: _361  and  _364
REMARK  138  A    between atoms: _364  and  _365
REMARK  139  A    between atoms: _365  and  _366
REMARK  140  A    between atoms: _368  and  _370
REMARK  141  A    between atoms: _370  and  _371
REMARK  142  A    between atoms: _370  and  _373
REMARK  143  A    between atoms: _373  and  _374
REMARK  144  A    between atoms: _374  and  _375
REMARK  145  A    between atoms: _380  and  _382
REMARK  146  A    between atoms: _382  and  _383
REMARK  147  A    between atoms: _382  and  _385
REMARK  148  A    between atoms: _385  and  _386
REMARK  149  A    between atoms: _389  and  _391
REMARK  150  A    between atoms: _391  and  _392
REMARK  151  A    between atoms: _391  and  _394
REMARK  152  A    between atoms: _394  and  _395
REMARK  153  A    between atoms: _400  and  _402
REMARK  154  A    between atoms: _402  and  _403
REMARK  155  A    between atoms: _402  and  _405
REMARK  156  A    between atoms: _405  and  _406
REMARK  157  A    between atoms: _409  and  _411
REMARK  158  A    between atoms: _411  and  _412
REMARK  159  A    between atoms: _411  and  _414
REMARK  160  A    between atoms: _414  and  _415
REMARK  161  A    between atoms: _415  and  _416
REMARK  162  A    between atoms: _416  and  _417
REMARK  163  A    between atoms: _426  and  _428
REMARK  164  A    between atoms: _428  and  _429
REMARK  165  A    between atoms: _428  and  _431
REMARK  166  A    between atoms: _431  and  _432
REMARK  167  A    between atoms: _437  and  _438
REMARK                            x       y       z     vdW  Elec       q    Type
REMARK                         _______ _______ _______ _____ _____    ______ ____
ROOT
ATOM      1  CB  PHE A   1     -12.360 -10.855  10.807  0.00  0.00    +0.051 C 
ENDROOT
BRANCH   1   2
ATOM      2  CG  PHE A   1     -12.048 -11.881  11.864  0.00  0.00    -0.020 A 
ATOM      3  CD2 PHE A   1     -13.052 -12.681  12.395  0.00  0.00    -0.004 A 
ATOM      4  CE2 PHE A   1     -12.771 -13.617  13.397  0.00  0.00    -0.000 A 
ATOM      5  CZ  PHE A   1     -11.471 -13.757  13.872  0.00  0.00    -0.000 A 
ATOM      6  CE1 PHE A   1     -10.456 -12.962  13.345  0.00  0.00    -0.000 A 
ATOM      7  CD1 PHE A   1     -10.749 -12.030  12.345  0.00  0.00    -0.004 A 
ENDBRANCH   1   2
BRANCH   1   8
ATOM      8  CA  PHE A   1     -12.258 -11.377   9.363  0.00  0.00    +0.137 C 
BRANCH   8   9
ATOM      9  N   PHE A   1     -13.488 -12.054   8.972  0.00  0.00    -0.239 NA
ATOM     10  H   PHE A   1     -13.520 -13.093   8.961  0.00  0.00    +0.142 HD
ENDBRANCH   8   9
BRANCH   8  11
ATOM     11  C   PHE A   1     -11.113 -12.358   9.226  0.00  0.00    +0.224 C 
ATOM     12  O   PHE A   1     -11.326 -13.567   9.231  0.00  0.00    -0.287 OA
ENDBRANCH   8  11
ENDBRANCH   1   8
TORSDOF 4
REMARK  Name = ../refined-set-2016/3wqm/3wqm_pocket.pdb
REMARK  167 active torsions:
REMARK  status: ('A' for Active; 'I' for Inactive)
REMARK    1  A    between atoms: _1  and  _3
REMARK    2  A    between atoms: _3  and  _4
REMARK    3  A    between atoms: _3  and  _6
REMARK    4  A    between atoms: _6  and  _7
REMARK    5  A    between atoms: _13  and  _15
REMARK    6  A    between atoms: _15  and  _16
REMARK    7  A    between atoms: _15  and  _18
REMARK    8  A    between atoms: _18  and  _19
REMARK    9  A    between atoms: _19  and  _21
REMARK   10  A    between atoms: _22  and  _24
REMARK   11  A    between atoms: _24  and  _25
REMARK   12  A    between atoms: _27  and  _29
REMARK   13  A    between atoms: _29  and  _30
REMARK   14  A    between atoms: _29  and  _32
REMARK   15  A    between atoms: _32  and  _33
REMARK   16  A    between atoms: _36  and  _38
REMARK   17  A    between atoms: _38  and  _39
REMARK   18  A    between atoms: _38  and  _41
REMARK   19  A    between atoms: _41  and  _42
REMARK   20  A    between atoms: _42  and  _43
REMARK   21  A    between atoms: _43  and  _44
REMARK   22  A    between atoms: _53  and  _55
REMARK   23  A    between atoms: _55  and  _56
REMARK   24  A    between atoms: _55  and  _58
REMARK   25  A    between atoms: _58  and  _59
REMARK   26  A    between atoms: _59  and  _60
REMARK   27  A    between atoms: _60  and  _61
REMARK   28  A    between atoms: _70  and  _72
REMARK   29  A    between atoms: _72  and  _73
REMARK   30  A    between atoms: _72  and  _75
REMARK   31  A    between atoms: _75  and  _76
REMARK   32  A    between atoms: _86  and  _88
REMARK   33  A    between atoms: _88  and  _89
REMARK   34  A    between atoms: _88  and  _91
REMARK   35  A    between atoms: _91  and  _92
REMARK   36  A    between atoms: _98  and  _100
REMARK   37  A    between atoms: _100  and  _101
REMARK   38  A    between atoms: _100  and  _103
REMARK   39  A    between atoms: _103  and  _104
REMARK   40  A    between atoms: _109  and  _111
REMARK   41  A    between atoms: _111  and  _112
REMARK   42  A    between atoms: _111  and  _114
REMARK   43  A    between atoms: _114  and  _115
REMARK   44  A    between atoms: _118  and  _120
REMARK   45  A    between atoms: _120  and  _121
REMARK   46  A    between atoms: _120  and  _123
REMARK   47  A    between atoms: _123  and  _124
REMARK   48  A    between atoms: _124  and  _125
REMARK   49  A    between atoms: _128  and  _130
REMARK   50  A    between atoms: _130  and  _131
REMARK   51  A    between atoms: _130  and  _133
REMARK   52  A    between atoms: _133  and  _134
REMARK   53  A    between atoms: _139  and  _141
REMARK   54  A    between atoms: _141  and  _142
REMARK   55  A    between atoms: _141  and  _144
REMARK   56  A    between atoms: _144  and  _145
REMARK   57  A    between atoms: _150  and  _151
REMARK   58  A    between atoms: _153  and  _155
REMARK   59  A    between atoms: _155  and  _156
REMARK   60  A    between atoms: _155  and  _158
REMARK   61  A    between atoms: _158  and  _159
REMARK   62  A    between atoms: _162  and  _164
REMARK   63  A    between atoms: _164  and  _165
REMARK   64  A    between atoms: _164  and  _167
REMARK   65  A    between atoms: _167  and  _168
REMARK   66  A    between atoms: _168  and  _169
REMARK   67  A    between atoms: _169  and  _170
REMARK   68  A    between atoms: _179  and  _181
REMARK   69  A    between atoms: _181  and  _182
REMARK   70  A    between atoms: _181  and  _184
REMARK   71  A    between atoms: _184  and  _185
REMARK   72  A    between atoms: _190  and  _191
REMARK   73  A    between atoms: _193  and  _195
REMARK   74  A    between atoms: _195  and  _196
REMARK   75  A    between atoms: _195  and  _198
REMARK   76  A    between atoms: _198  and  _199
REMARK   77  A    between atoms: _199  and  _200
REMARK   78  A    between atoms: _205  and  _207
REMARK   79  A    between atoms: _207  and  _208
REMARK   80  A    between atoms: _207  and  _210
REMARK   81  A    between atoms: _210  and  _211
REMARK   82  A    between atoms: _217  and  _219
REMARK   83  A    between atoms: _219  and  _220
REMARK   84  A    between atoms: _219  and  _222
REMARK   85  A    between atoms: _222  and  _223
REMARK   86  A    between atoms: _223  and  _224
REMARK   87  A    between atoms: _224  and  _225
REMARK   88  A    between atoms: _235  and  _236
REMARK   89  A    between atoms: _241  and  _243
REMARK   90  A    between atoms: _243  and  _244
REMARK   91  A    between atoms: _243  and  _246
REMARK   92  A    between atoms: _246  and  _247
REMARK   93  A    between atoms: _249  and  _251
REMARK   94  A    between atoms: _251  and  _252
REMARK   95  A    between atoms: _251  and  _254
REMARK   96  A    between atoms: _254  and  _255
REMARK   97  A    between atoms: _260  and  _261
REMARK   98  A    between atoms: _263  and  _265
REMARK   99  A    between atoms: _265  and  _266
REMARK  100  A    between atoms: _265  and  _268
REMARK  101  A    between atoms: _268  and  _269
REMARK  102  A    between atoms: _272  and  _274
REMARK  103  A    between atoms: _274  and  _275
REMARK  104  A    between atoms: _277  and  _279
REMARK  105  A    between atoms: _279  and  _280
REMARK  106  A    between atoms: _279  and  _282
REMARK  107  A    between atoms: _282  and  _283
REMARK  108  A    between atoms: _286  and  _288
REMARK  109  A    between atoms: _288  and  _289
REMARK  110  A    between atoms: _288  and  _291
REMARK  111  A    between atoms: _291  and  _292
REMARK  112  A    between atoms: _302  and  _304
REMARK  113  A    between atoms: _304  and  _305
REMARK  114  A    between atoms: _304  and  _307
REMARK  115  A    between atoms: _307  and  _308
REMARK  116  A    between atoms: _308  and  _309
REMARK  117  A    between atoms: _309  and  _310
REMARK  118  A    between atoms: _310  and  _311
REMARK  119  A    between atoms: _316  and  _317
REMARK  120  A    between atoms: _322  and  _324
REMARK  121  A    between atoms: _324  and  _325
REMARK  122  A    between atoms: _324  and  _327
REMARK  123  A    between atoms: _327  and  _328
REMARK  124  A    between atoms: _331  and  _333
REMARK  125  A    between atoms: _333  and  _334
REMARK  126  A    between atoms: _333  and  _336
REMARK  127  A    between atoms: _336  and  _337
REMARK  128  A    between atoms: _342  and  _343
REMARK  129  A    between atoms: _345  and  _347
REMARK  130  A    between atoms: _347  and  _348
REMARK  131  A    between atoms: _347  and  _350
REMARK  132  A    between atoms: _350  and  _351
REMARK  133  A    between atoms: _353  and  _355
REMARK  134  A    between atoms: _355  and  _356
REMARK  135  A    between atoms: _359  and  _361
REMARK  136  A    between atoms: _361  and  _362
REMARK  137  A    between atoms: _361  and  _364
REMARK  138  A    between atoms: _364  and  _365
REMARK  139  A    between atoms: _365  and  _366
REMARK  140  A    between atoms: _368  and  _370
REMARK  141  A    between atoms: _370  and  _371
REMARK  142  A    between atoms: _370  and  _373
REMARK  143  A    between atoms: _373  and  _374
REMARK  144  A    between atoms: _374  and  _375
REMARK  145  A    between atoms: _380  and  _382
REMARK  146  A    between atoms: _382  and  _383
REMARK  147  A    between atoms: _382  and  _385
REMARK  148  A    between atoms: _385  and  _386
REMARK  149  A    between atoms: _389  and  _391
REMARK  150  A    between atoms: _391  and  _392
REMARK  151  A    between atoms: _391  and  _394
REMARK  152  A    between atoms: _394  and  _395
REMARK  153  A    between atoms: _400  and  _402
REMARK  154  A    between atoms: _402  and  _403
REMARK  155  A    between atoms: _402  and  _405
REMARK  156  A    between atoms: _405  and  _406
REMARK  157  A    between atoms: _409  and  _411
REMARK  158  A    between atoms: _411  and  _412
REMARK  159  A    between atoms: _411  and  _414
REMARK  160  A    between atoms: _414  and  _415
REMARK  161  A    between atoms: _415  and  _416
REMARK  162  A    between atoms: _416  and  _417
REMARK  163  A    between atoms: _426  and  _428
REMARK  164  A    between atoms: _428  and  _429
REMARK  165  A    between atoms: _428  and  _431
REMARK  166  A    between atoms: _431  and  _432
REMARK  167  A    between atoms: _437  and  _438
REMARK                            x       y       z     vdW  Elec       q    Type
REMARK                         _______ _______ _______ _____ _____    ______ ____
ROOT
ATOM      1  NE  ARG A   1      -7.439 -18.667   9.397  0.00  0.00    -0.265 N 
ATOM      2  CZ  ARG A   1      -7.570 -19.727  10.192  0.00  0.00    +0.342 C 
ATOM      3  NH2 ARG A   1      -8.274 -19.632  11.313  0.00  0.00    -0.292 N 
ATOM      4 HH21 ARG A   1      -8.377 -20.460  11.934  0.00  0.00    +0.255 HD
ATOM      5 HH22 ARG A   1      -8.723 -18.730  11.570  0.00  0.00    +0.255 HD
ATOM      6  NH1 ARG A   1      -7.001 -20.883   9.867  0.00  0.00    -0.292 N 
ATOM      7 HH11 ARG A   1      -7.106 -21.708  10.491  0.00  0.00    +0.255 HD
ATOM      8 HH12 ARG A   1      -6.450 -20.963   8.988  0.00  0.00    +0.255 HD
ATOM      9  HE  ARG A   1      -7.901 -17.782   9.689  0.00  0.00    +0.259 HD
ENDROOT
BRANCH   1  10
ATOM     10  CD  ARG A   1      -6.691 -18.663   8.143  0.00  0.00    +0.174 C 
BRANCH  10  11
ATOM     11  CG  ARG A   1      -6.805 -17.307   7.458  0.00  0.00    +0.045 C 
BRANCH  11  12
ATOM     12  CB  ARG A   1      -8.225 -17.040   6.970  0.00  0.00    +0.029 C 
BRANCH  12  13
ATOM     13  CA  ARG A   1      -8.447 -15.587   6.537  0.00  0.00    +0.133 C 
BRANCH  13  14
ATOM     14  N   ARG A   1      -8.488 -14.733   7.714  0.00  0.00    -0.239 NA
ATOM     15  H   ARG A   1      -8.315 -15.155   8.649  0.00  0.00    +0.142 HD
ENDBRANCH  13  14
BRANCH  13  16
ATOM     16  C   ARG A   1      -9.726 -15.464   5.714  0.00  0.00    +0.224 C 
ATOM     17  O   ARG A   1     -10.829 -15.522   6.259  0.00  0.00    -0.287 OA
ENDBRANCH  13  16
ENDBRANCH  12  13
ENDBRANCH  11  12
ENDBRANCH  10  11
ENDBRANCH   1  10
TORSDOF 6
REMARK  Name = ../refined-set-2016/3wqm/3wqm_pocket.pdb
REMARK  167 active torsions:
REMARK  status: ('A' for Active; 'I' for Inactive)
REMARK    1  A    between atoms: _1  and  _3
REMARK    2  A    between atoms: _3  and  _4
REMARK    3  A    between atoms: _3  and  _6
REMARK    4  A    between atoms: _6  and  _7
REMARK    5  A    between atoms: _13  and  _15
REMARK    6  A    between atoms: _15  and  _16
REMARK    7  A    between atoms: _15  and  _18
REMARK    8  A    between atoms: _18  and  _19
REMARK    9  A    between atoms: _19  and  _21
REMARK   10  A    between atoms: _22  and  _24
REMARK   11  A    between atoms: _24  and  _25
REMARK   12  A    between atoms: _27  and  _29
REMARK   13  A    between atoms: _29  and  _30
REMARK   14  A    between atoms: _29  and  _32
REMARK   15  A    between atoms: _32  and  _33
REMARK   16  A    between atoms: _36  and  _38
REMARK   17  A    between atoms: _38  and  _39
REMARK   18  A    between atoms: _38  and  _41
REMARK   19  A    between atoms: _41  and  _42
REMARK   20  A    between atoms: _42  and  _43
REMARK   21  A    between atoms: _43  and  _44
REMARK   22  A    between atoms: _53  and  _55
REMARK   23  A    between atoms: _55  and  _56
REMARK   24  A    between atoms: _55  and  _58
REMARK   25  A    between atoms: _58  and  _59
REMARK   26  A    between atoms: _59  and  _60
REMARK   27  A    between atoms: _60  and  _61
REMARK   28  A    between atoms: _70  and  _72
REMARK   29  A    between atoms: _72  and  _73
REMARK   30  A    between atoms: _72  and  _75
REMARK   31  A    between atoms: _75  and  _76
REMARK   32  A    between atoms: _86  and  _88
REMARK   33  A    between atoms: _88  and  _89
REMARK   34  A    between atoms: _88  and  _91
REMARK   35  A    between atoms: _91  and  _92
REMARK   36  A    between atoms: _98  and  _100
REMARK   37  A    between atoms: _100  and  _101
REMARK   38  A    between atoms: _100  and  _103
REMARK   39  A    between atoms: _103  and  _104
REMARK   40  A    between atoms: _109  and  _111
REMARK   41  A    between atoms: _111  and  _112
REMARK   42  A    between atoms: _111  and  _114
REMARK   43  A    between atoms: _114  and  _115
REMARK   44  A    between atoms: _118  and  _120
REMARK   45  A    between atoms: _120  and  _121
REMARK   46  A    between atoms: _120  and  _123
REMARK   47  A    between atoms: _123  and  _124
REMARK   48  A    between atoms: _124  and  _125
REMARK   49  A    between atoms: _128  and  _130
REMARK   50  A    between atoms: _130  and  _131
REMARK   51  A    between atoms: _130  and  _133
REMARK   52  A    between atoms: _133  and  _134
REMARK   53  A    between atoms: _139  and  _141
REMARK   54  A    between atoms: _141  and  _142
REMARK   55  A    between atoms: _141  and  _144
REMARK   56  A    between atoms: _144  and  _145
REMARK   57  A    between atoms: _150  and  _151
REMARK   58  A    between atoms: _153  and  _155
REMARK   59  A    between atoms: _155  and  _156
REMARK   60  A    between atoms: _155  and  _158
REMARK   61  A    between atoms: _158  and  _159
REMARK   62  A    between atoms: _162  and  _164
REMARK   63  A    between atoms: _164  and  _165
REMARK   64  A    between atoms: _164  and  _167
REMARK   65  A    between atoms: _167  and  _168
REMARK   66  A    between atoms: _168  and  _169
REMARK   67  A    between atoms: _169  and  _170
REMARK   68  A    between atoms: _179  and  _181
REMARK   69  A    between atoms: _181  and  _182
REMARK   70  A    between atoms: _181  and  _184
REMARK   71  A    between atoms: _184  and  _185
REMARK   72  A    between atoms: _190  and  _191
REMARK   73  A    between atoms: _193  and  _195
REMARK   74  A    between atoms: _195  and  _196
REMARK   75  A    between atoms: _195  and  _198
REMARK   76  A    between atoms: _198  and  _199
REMARK   77  A    between atoms: _199  and  _200
REMARK   78  A    between atoms: _205  and  _207
REMARK   79  A    between atoms: _207  and  _208
REMARK   80  A    between atoms: _207  and  _210
REMARK   81  A    between atoms: _210  and  _211
REMARK   82  A    between atoms: _217  and  _219
REMARK   83  A    between atoms: _219  and  _220
REMARK   84  A    between atoms: _219  and  _222
REMARK   85  A    between atoms: _222  and  _223
REMARK   86  A    between atoms: _223  and  _224
REMARK   87  A    between atoms: _224  and  _225
REMARK   88  A    between atoms: _235  and  _236
REMARK   89  A    between atoms: _241  and  _243
REMARK   90  A    between atoms: _243  and  _244
REMARK   91  A    between atoms: _243  and  _246
REMARK   92  A    between atoms: _246  and  _247
REMARK   93  A    between atoms: _249  and  _251
REMARK   94  A    between atoms: _251  and  _252
REMARK   95  A    between atoms: _251  and  _254
REMARK   96  A    between atoms: _254  and  _255
REMARK   97  A    between atoms: _260  and  _261
REMARK   98  A    between atoms: _263  and  _265
REMARK   99  A    between atoms: _265  and  _266
REMARK  100  A    between atoms: _265  and  _268
REMARK  101  A    between atoms: _268  and  _269
REMARK  102  A    between atoms: _272  and  _274
REMARK  103  A    between atoms: _274  and  _275
REMARK  104  A    between atoms: _277  and  _279
REMARK  105  A    between atoms: _279  and  _280
REMARK  106  A    between atoms: _279  and  _282
REMARK  107  A    between atoms: _282  and  _283
REMARK  108  A    between atoms: _286  and  _288
REMARK  109  A    between atoms: _288  and  _289
REMARK  110  A    between atoms: _288  and  _291
REMARK  111  A    between atoms: _291  and  _292
REMARK  112  A    between atoms: _302  and  _304
REMARK  113  A    between atoms: _304  and  _305
REMARK  114  A    between atoms: _304  and  _307
REMARK  115  A    between atoms: _307  and  _308
REMARK  116  A    between atoms: _308  and  _309
REMARK  117  A    between atoms: _309  and  _310
REMARK  118  A    between atoms: _310  and  _311
REMARK  119  A    between atoms: _316  and  _317
REMARK  120  A    between atoms: _322  and  _324
REMARK  121  A    between atoms: _324  and  _325
REMARK  122  A    between atoms: _324  and  _327
REMARK  123  A    between atoms: _327  and  _328
REMARK  124  A    between atoms: _331  and  _333
REMARK  125  A    between atoms: _333  and  _334
REMARK  126  A    between atoms: _333  and  _336
REMARK  127  A    between atoms: _336  and  _337
REMARK  128  A    between atoms: _342  and  _343
REMARK  129  A    between atoms: _345  and  _347
REMARK  130  A    between atoms: _347  and  _348
REMARK  131  A    between atoms: _347  and  _350
REMARK  132  A    between atoms: _350  and  _351
REMARK  133  A    between atoms: _353  and  _355
REMARK  134  A    between atoms: _355  and  _356
REMARK  135  A    between atoms: _359  and  _361
REMARK  136  A    between atoms: _361  and  _362
REMARK  137  A    between atoms: _361  and  _364
REMARK  138  A    between atoms: _364  and  _365
REMARK  139  A    between atoms: _365  and  _366
REMARK  140  A    between atoms: _368  and  _370
REMARK  141  A    between atoms: _370  and  _371
REMARK  142  A    between atoms: _370  and  _373
REMARK  143  A    between atoms: _373  and  _374
REMARK  144  A    between atoms: _374  and  _375
REMARK  145  A    between atoms: _380  and  _382
REMARK  146  A    between atoms: _382  and  _383
REMARK  147  A    between atoms: _382  and  _385
REMARK  148  A    between atoms: _385  and  _386
REMARK  149  A    between atoms: _389  and  _391
REMARK  150  A    between atoms: _391  and  _392
REMARK  151  A    between atoms: _391  and  _394
REMARK  152  A    between atoms: _394  and  _395
REMARK  153  A    between atoms: _400  and  _402
REMARK  154  A    between atoms: _402  and  _403
REMARK  155  A    between atoms: _402  and  _405
REMARK  156  A    between atoms: _405  and  _406
REMARK  157  A    between atoms: _409  and  _411
REMARK  158  A    between atoms: _411  and  _412
REMARK  159  A    between atoms: _411  and  _414
REMARK  160  A    between atoms: _414  and  _415
REMARK  161  A    between atoms: _415  and  _416
REMARK  162  A    between atoms: _416  and  _417
REMARK  163  A    between atoms: _426  and  _428
REMARK  164  A    between atoms: _428  and  _429
REMARK  165  A    between atoms: _428  and  _431
REMARK  166  A    between atoms: _431  and  _432
REMARK  167  A    between atoms: _437  and  _438
REMARK                            x       y       z     vdW  Elec       q    Type
REMARK                         _______ _______ _______ _____ _____    ______ ____
ROOT
ATOM      1  C   SER A   2     -16.073  -8.357  15.713  0.00  0.00    +0.243 C 
ATOM      2  N   TYR A   3     -15.709  -8.572  16.972  0.00  0.00    -0.298 N 
ATOM      3  H   TYR A   3     -15.216  -9.457  17.206  0.00  0.00    +0.150 HD
ATOM      4  O   SER A   2     -16.630  -7.323  15.343  0.00  0.00    -0.273 OA
ENDROOT
BRANCH   1   5
ATOM      5  CA  SER A   2     -15.771  -9.488  14.728  0.00  0.00    +0.178 C 
BRANCH   5   8
ATOM      6  C   PRO A   1     -13.327  -9.222  14.920  0.00  0.00    +0.239 C 
ATOM      7  O   PRO A   1     -13.381  -7.998  15.061  0.00  0.00    -0.274 OA
ATOM      8  N   SER A   2     -14.398  -9.992  14.768  0.00  0.00    -0.295 N 
ATOM      9  H   SER A   2     -14.252 -11.017  14.671  0.00  0.00    +0.150 HD
BRANCH   6  14
ATOM     10  N   PRO A   1     -10.835  -9.117  14.605  0.00  0.00    -0.210 NA
ATOM     11  CD  PRO A   1      -9.784  -9.254  15.635  0.00  0.00    +0.089 C 
ATOM     12  CG  PRO A   1     -10.136 -10.573  16.280  0.00  0.00    +0.021 C 
ATOM     13  CB  PRO A   1     -11.639 -10.520  16.308  0.00  0.00    +0.028 C 
ATOM     14  CA  PRO A   1     -11.988  -9.967  14.924  0.00  0.00    +0.149 C 
ENDBRANCH   6  14
ENDBRANCH   5   8
BRANCH   5  15
ATOM     15  CB  SER A   2     -16.743 -10.639  15.014  0.00  0.00    +0.166 C 
BRANCH  15  16
ATOM     16  OG  SER A   2     -16.321 -11.841  14.393  0.00  0.00    -0.380 OA
ATOM     17  H   SER A   2     -16.969 -12.561  14.597  0.00  0.00    +0.211 HD
ENDBRANCH  15  16
ENDBRANCH   5  15
ENDBRANCH   1   5
BRANCH   2  18
ATOM     18  CA  TYR A   3     -15.976  -7.611  18.040  0.00  0.00    +0.141 C 
BRANCH  18  19
ATOM     19  C   TYR A   3     -15.379  -6.209  17.883  0.00  0.00    +0.227 C 
ATOM     20  O   TYR A   3     -15.810  -5.277  18.554  0.00  0.00    -0.286 OA
ENDBRANCH  18  19
BRANCH  18  21
ATOM     21  CB  TYR A   3     -15.533  -8.224  19.374  0.00  0.00    +0.054 C 
BRANCH  21  22
ATOM     22  CG  TYR A   3     -16.161  -9.577  19.645  0.00  0.00    -0.020 A 
ATOM     23  CD2 TYR A   3     -17.387  -9.684  20.302  0.00  0.00    -0.001 A 
ATOM     24  CE2 TYR A   3     -17.980 -10.930  20.533  0.00  0.00    +0.036 A 
ATOM     25  CZ  TYR A   3     -17.341 -12.083  20.102  0.00  0.00    +0.134 A 
ATOM     26  CE1 TYR A   3     -16.123 -12.005  19.445  0.00  0.00    +0.036 A 
ATOM     27  CD1 TYR A   3     -15.538 -10.753  19.220  0.00  0.00    -0.001 A 
BRANCH  25  28
ATOM     28  OH  TYR A   3     -17.913 -13.314  20.329  0.00  0.00    -0.506 OA
ATOM     29  HH  TYR A   3     -17.302 -13.863  20.882  0.00  0.00    +0.292 HD
ENDBRANCH  25  28
ENDBRANCH  21  22
ENDBRANCH  18  21
ENDBRANCH   2  18
TORSDOF 10
REMARK  Name = ../refined-set-2016/3wqm/3wqm_pocket.pdb
REMARK  167 active torsions:
REMARK  status: ('A' for Active; 'I' for Inactive)
REMARK    1  A    between atoms: _1  and  _3
REMARK    2  A    between atoms: _3  and  _4
REMARK    3  A    between atoms: _3  and  _6
REMARK    4  A    between atoms: _6  and  _7
REMARK    5  A    between atoms: _13  and  _15
REMARK    6  A    between atoms: _15  and  _16
REMARK    7  A    between atoms: _15  and  _18
REMARK    8  A    between atoms: _18  and  _19
REMARK    9  A    between atoms: _19  and  _21
REMARK   10  A    between atoms: _22  and  _24
REMARK   11  A    between atoms: _24  and  _25
REMARK   12  A    between atoms: _27  and  _29
REMARK   13  A    between atoms: _29  and  _30
REMARK   14  A    between atoms: _29  and  _32
REMARK   15  A    between atoms: _32  and  _33
REMARK   16  A    between atoms: _36  and  _38
REMARK   17  A    between atoms: _38  and  _39
REMARK   18  A    between atoms: _38  and  _41
REMARK   19  A    between atoms: _41  and  _42
REMARK   20  A    between atoms: _42  and  _43
REMARK   21  A    between atoms: _43  and  _44
REMARK   22  A    between atoms: _53  and  _55
REMARK   23  A    between atoms: _55  and  _56
REMARK   24  A    between atoms: _55  and  _58
REMARK   25  A    between atoms: _58  and  _59
REMARK   26  A    between atoms: _59  and  _60
REMARK   27  A    between atoms: _60  and  _61
REMARK   28  A    between atoms: _70  and  _72
REMARK   29  A    between atoms: _72  and  _73
REMARK   30  A    between atoms: _72  and  _75
REMARK   31  A    between atoms: _75  and  _76
REMARK   32  A    between atoms: _86  and  _88
REMARK   33  A    between atoms: _88  and  _89
REMARK   34  A    between atoms: _88  and  _91
REMARK   35  A    between atoms: _91  and  _92
REMARK   36  A    between atoms: _98  and  _100
REMARK   37  A    between atoms: _100  and  _101
REMARK   38  A    between atoms: _100  and  _103
REMARK   39  A    between atoms: _103  and  _104
REMARK   40  A    between atoms: _109  and  _111
REMARK   41  A    between atoms: _111  and  _112
REMARK   42  A    between atoms: _111  and  _114
REMARK   43  A    between atoms: _114  and  _115
REMARK   44  A    between atoms: _118  and  _120
REMARK   45  A    between atoms: _120  and  _121
REMARK   46  A    between atoms: _120  and  _123
REMARK   47  A    between atoms: _123  and  _124
REMARK   48  A    between atoms: _124  and  _125
REMARK   49  A    between atoms: _128  and  _130
REMARK   50  A    between atoms: _130  and  _131
REMARK   51  A    between atoms: _130  and  _133
REMARK   52  A    between atoms: _133  and  _134
REMARK   53  A    between atoms: _139  and  _141
REMARK   54  A    between atoms: _141  and  _142
REMARK   55  A    between atoms: _141  and  _144
REMARK   56  A    between atoms: _144  and  _145
REMARK   57  A    between atoms: _150  and  _151
REMARK   58  A    between atoms: _153  and  _155
REMARK   59  A    between atoms: _155  and  _156
REMARK   60  A    between atoms: _155  and  _158
REMARK   61  A    between atoms: _158  and  _159
REMARK   62  A    between atoms: _162  and  _164
REMARK   63  A    between atoms: _164  and  _165
REMARK   64  A    between atoms: _164  and  _167
REMARK   65  A    between atoms: _167  and  _168
REMARK   66  A    between atoms: _168  and  _169
REMARK   67  A    between atoms: _169  and  _170
REMARK   68  A    between atoms: _179  and  _181
REMARK   69  A    between atoms: _181  and  _182
REMARK   70  A    between atoms: _181  and  _184
REMARK   71  A    between atoms: _184  and  _185
REMARK   72  A    between atoms: _190  and  _191
REMARK   73  A    between atoms: _193  and  _195
REMARK   74  A    between atoms: _195  and  _196
REMARK   75  A    between atoms: _195  and  _198
REMARK   76  A    between atoms: _198  and  _199
REMARK   77  A    between atoms: _199  and  _200
REMARK   78  A    between atoms: _205  and  _207
REMARK   79  A    between atoms: _207  and  _208
REMARK   80  A    between atoms: _207  and  _210
REMARK   81  A    between atoms: _210  and  _211
REMARK   82  A    between atoms: _217  and  _219
REMARK   83  A    between atoms: _219  and  _220
REMARK   84  A    between atoms: _219  and  _222
REMARK   85  A    between atoms: _222  and  _223
REMARK   86  A    between atoms: _223  and  _224
REMARK   87  A    between atoms: _224  and  _225
REMARK   88  A    between atoms: _235  and  _236
REMARK   89  A    between atoms: _241  and  _243
REMARK   90  A    between atoms: _243  and  _244
REMARK   91  A    between atoms: _243  and  _246
REMARK   92  A    between atoms: _246  and  _247
REMARK   93  A    between atoms: _249  and  _251
REMARK   94  A    between atoms: _251  and  _252
REMARK   95  A    between atoms: _251  and  _254
REMARK   96  A    between atoms: _254  and  _255
REMARK   97  A    between atoms: _260  and  _261
REMARK   98  A    between atoms: _263  and  _265
REMARK   99  A    between atoms: _265  and  _266
REMARK  100  A    between atoms: _265  and  _268
REMARK  101  A    between atoms: _268  and  _269
REMARK  102  A    between atoms: _272  and  _274
REMARK  103  A    between atoms: _274  and  _275
REMARK  104  A    between atoms: _277  and  _279
REMARK  105  A    between atoms: _279  and  _280
REMARK  106  A    between atoms: _279  and  _282
REMARK  107  A    between atoms: _282  and  _283
REMARK  108  A    between atoms: _286  and  _288
REMARK  109  A    between atoms: _288  and  _289
REMARK  110  A    between atoms: _288  and  _291
REMARK  111  A    between atoms: _291  and  _292
REMARK  112  A    between atoms: _302  and  _304
REMARK  113  A    between atoms: _304  and  _305
REMARK  114  A    between atoms: _304  and  _307
REMARK  115  A    between atoms: _307  and  _308
REMARK  116  A    between atoms: _308  and  _309
REMARK  117  A    between atoms: _309  and  _310
REMARK  118  A    between atoms: _310  and  _311
REMARK  119  A    between atoms: _316  and  _317
REMARK  120  A    between atoms: _322  and  _324
REMARK  121  A    between atoms: _324  and  _325
REMARK  122  A    between atoms: _324  and  _327
REMARK  123  A    between atoms: _327  and  _328
REMARK  124  A    between atoms: _331  and  _333
REMARK  125  A    between atoms: _333  and  _334
REMARK  126  A    between atoms: _333  and  _336
REMARK  127  A    between atoms: _336  and  _337
REMARK  128  A    between atoms: _342  and  _343
REMARK  129  A    between atoms: _345  and  _347
REMARK  130  A    between atoms: _347  and  _348
REMARK  131  A    between atoms: _347  and  _350
REMARK  132  A    between atoms: _350  and  _351
REMARK  133  A    between atoms: _353  and  _355
REMARK  134  A    between atoms: _355  and  _356
REMARK  135  A    between atoms: _359  and  _361
REMARK  136  A    between atoms: _361  and  _362
REMARK  137  A    between atoms: _361  and  _364
REMARK  138  A    between atoms: _364  and  _365
REMARK  139  A    between atoms: _365  and  _366
REMARK  140  A    between atoms: _368  and  _370
REMARK  141  A    between atoms: _370  and  _371
REMARK  142  A    between atoms: _370  and  _373
REMARK  143  A    between atoms: _373  and  _374
REMARK  144  A    between atoms: _374  and  _375
REMARK  145  A    between atoms: _380  and  _382
REMARK  146  A    between atoms: _382  and  _383
REMARK  147  A    between atoms: _382  and  _385
REMARK  148  A    between atoms: _385  and  _386
REMARK  149  A    between atoms: _389  and  _391
REMARK  150  A    between atoms: _391  and  _392
REMARK  151  A    between atoms: _391  and  _394
REMARK  152  A    between atoms: _394  and  _395
REMARK  153  A    between atoms: _400  and  _402
REMARK  154  A    between atoms: _402  and  _403
REMARK  155  A    between atoms: _402  and  _405
REMARK  156  A    between atoms: _405  and  _406
REMARK  157  A    between atoms: _409  and  _411
REMARK  158  A    between atoms: _411  and  _412
REMARK  159  A    between atoms: _411  and  _414
REMARK  160  A    between atoms: _414  and  _415
REMARK  161  A    between atoms: _415  and  _416
REMARK  162  A    between atoms: _416  and  _417
REMARK  163  A    between atoms: _426  and  _428
REMARK  164  A    between atoms: _428  and  _429
REMARK  165  A    between atoms: _428  and  _431
REMARK  166  A    between atoms: _431  and  _432
REMARK  167  A    between atoms: _437  and  _438
REMARK                            x       y       z     vdW  Elec       q    Type
REMARK                         _______ _______ _______ _____ _____    ______ ____
ROOT
ATOM      1  CA  ILE A   3      -1.949 -15.402  13.286  0.00  0.00    +0.149 C 
ENDROOT
BRANCH   1   3
ATOM      2  C   GLY A   2      -0.708 -17.345  14.018  0.00  0.00    +0.243 C 
ATOM      3  N   ILE A   3      -0.757 -16.029  13.842  0.00  0.00    -0.297 N 
ATOM      4  H   ILE A   3       0.061 -15.442  14.103  0.00  0.00    +0.150 HD
ATOM      5  O   GLY A   2      -1.651 -18.089  13.731  0.00  0.00    -0.273 OA
BRANCH   2   6
ATOM      6  CA  GLY A   2       0.578 -17.910  14.597  0.00  0.00    +0.176 C 
BRANCH   6   9
ATOM      7  C   ASP A   1       1.521 -16.114  15.894  0.00  0.00    +0.239 C 
ATOM      8  O   ASP A   1       0.611 -16.192  16.718  0.00  0.00    -0.274 OA
ATOM      9  N   GLY A   2       1.596 -16.902  14.830  0.00  0.00    -0.296 N 
ATOM     10  H   GLY A   2       2.386 -16.798  14.161  0.00  0.00    +0.150 HD
BRANCH   7  11
ATOM     11  CA  ASP A   1       2.626 -15.088  16.066  0.00  0.00    +0.156 C 
BRANCH  11  12
ATOM     12  N   ASP A   1       3.057 -14.494  14.805  0.00  0.00    -0.238 NA
ATOM     13  H   ASP A   1       4.060 -14.543  14.533  0.00  0.00    +0.142 HD
ENDBRANCH  11  12
BRANCH  11  14
ATOM     14  CB  ASP A   1       2.144 -13.997  17.015  0.00  0.00    +0.140 C 
BRANCH  14  15
ATOM     15  CG  ASP A   1       3.235 -13.515  17.933  0.00  0.00    +0.367 C 
ATOM     16  OD2 ASP A   1       2.917 -13.188  19.097  0.00  0.00    -0.246 OA
ATOM     17  OD1 ASP A   1       4.407 -13.462  17.488  0.00  0.00    -0.246 OA
ENDBRANCH  14  15
ENDBRANCH  11  14
ENDBRANCH   7  11
ENDBRANCH   6   9
ENDBRANCH   2   6
ENDBRANCH   1   3
BRANCH   1  18
ATOM     18  C   ILE A   3      -1.709 -14.958  11.849  0.00  0.00    +0.241 C 
ATOM     19  O   ILE A   3      -0.731 -14.281  11.543  0.00  0.00    -0.273 OA
ATOM     20  N   TRP A   4      -2.625 -15.351  10.974  0.00  0.00    -0.298 N 
ATOM     21  H   TRP A   4      -3.428 -15.917  11.314  0.00  0.00    +0.150 HD
BRANCH  20  22
ATOM     22  CA  TRP A   4      -2.553 -15.022   9.554  0.00  0.00    +0.141 C 
BRANCH  22  23
ATOM     23  C   TRP A   4      -3.115 -13.621   9.298  0.00  0.00    +0.227 C 
ATOM     24  O   TRP A   4      -4.143 -13.247   9.864  0.00  0.00    -0.286 OA
ENDBRANCH  22  23
BRANCH  22  25
ATOM     25  CB  TRP A   4      -3.365 -16.066   8.772  0.00  0.00    +0.056 C 
BRANCH  25  26
ATOM     26  CG  TRP A   4      -3.324 -15.951   7.279  0.00  0.00    -0.002 A 
ATOM     27  CD2 TRP A   4      -4.160 -15.122   6.464  0.00  0.00    +0.013 A 
ATOM     28  CE3 TRP A   4      -5.153 -14.168   6.744  0.00  0.00    +0.001 A 
ATOM     29  CZ3 TRP A   4      -5.791 -13.540   5.684  0.00  0.00    +0.000 A 
ATOM     30  CH2 TRP A   4      -5.456 -13.848   4.351  0.00  0.00    +0.001 A 
ATOM     31  CZ2 TRP A   4      -4.489 -14.775   4.052  0.00  0.00    +0.017 A 
ATOM     32  CE2 TRP A   4      -3.847 -15.406   5.118  0.00  0.00    +0.056 A 
ATOM     33  NE1 TRP A   4      -2.859 -16.358   5.116  0.00  0.00    -0.352 N 
ATOM     34  HE1 TRP A   4      -2.418 -16.772   4.270  0.00  0.00    +0.166 HD
ATOM     35  CD1 TRP A   4      -2.548 -16.675   6.423  0.00  0.00    +0.068 A 
ENDBRANCH  25  26
ENDBRANCH  22  25
ENDBRANCH  20  22
ENDBRANCH   1  18
BRANCH   1  36
ATOM     36  CB  ILE A   3      -2.407 -14.192  14.140  0.00  0.00    +0.027 C 
ATOM     37  CG2 ILE A   3      -3.651 -13.556  13.525  0.00  0.00    +0.002 C 
BRANCH  36  38
ATOM     38  CG1 ILE A   3      -2.736 -14.663  15.563  0.00  0.00    +0.002 C 
ATOM     39  CD1 ILE A   3      -3.066 -13.545  16.523  0.00  0.00    +0.000 C 
ENDBRANCH  36  38
ENDBRANCH   1  36
TORSDOF 14
REMARK  Name = ../refined-set-2016/3wqm/3wqm_pocket.pdb
REMARK  167 active torsions:
REMARK  status: ('A' for Active; 'I' for Inactive)
REMARK    1  A    between atoms: _1  and  _3
REMARK    2  A    between atoms: _3  and  _4
REMARK    3  A    between atoms: _3  and  _6
REMARK    4  A    between atoms: _6  and  _7
REMARK    5  A    between atoms: _13  and  _15
REMARK    6  A    between atoms: _15  and  _16
REMARK    7  A    between atoms: _15  and  _18
REMARK    8  A    between atoms: _18  and  _19
REMARK    9  A    between atoms: _19  and  _21
REMARK   10  A    between atoms: _22  and  _24
REMARK   11  A    between atoms: _24  and  _25
REMARK   12  A    between atoms: _27  and  _29
REMARK   13  A    between atoms: _29  and  _30
REMARK   14  A    between atoms: _29  and  _32
REMARK   15  A    between atoms: _32  and  _33
REMARK   16  A    between atoms: _36  and  _38
REMARK   17  A    between atoms: _38  and  _39
REMARK   18  A    between atoms: _38  and  _41
REMARK   19  A    between atoms: _41  and  _42
REMARK   20  A    between atoms: _42  and  _43
REMARK   21  A    between atoms: _43  and  _44
REMARK   22  A    between atoms: _53  and  _55
REMARK   23  A    between atoms: _55  and  _56
REMARK   24  A    between atoms: _55  and  _58
REMARK   25  A    between atoms: _58  and  _59
REMARK   26  A    between atoms: _59  and  _60
REMARK   27  A    between atoms: _60  and  _61
REMARK   28  A    between atoms: _70  and  _72
REMARK   29  A    between atoms: _72  and  _73
REMARK   30  A    between atoms: _72  and  _75
REMARK   31  A    between atoms: _75  and  _76
REMARK   32  A    between atoms: _86  and  _88
REMARK   33  A    between atoms: _88  and  _89
REMARK   34  A    between atoms: _88  and  _91
REMARK   35  A    between atoms: _91  and  _92
REMARK   36  A    between atoms: _98  and  _100
REMARK   37  A    between atoms: _100  and  _101
REMARK   38  A    between atoms: _100  and  _103
REMARK   39  A    between atoms: _103  and  _104
REMARK   40  A    between atoms: _109  and  _111
REMARK   41  A    between atoms: _111  and  _112
REMARK   42  A    between atoms: _111  and  _114
REMARK   43  A    between atoms: _114  and  _115
REMARK   44  A    between atoms: _118  and  _120
REMARK   45  A    between atoms: _120  and  _121
REMARK   46  A    between atoms: _120  and  _123
REMARK   47  A    between atoms: _123  and  _124
REMARK   48  A    between atoms: _124  and  _125
REMARK   49  A    between atoms: _128  and  _130
REMARK   50  A    between atoms: _130  and  _131
REMARK   51  A    between atoms: _130  and  _133
REMARK   52  A    between atoms: _133  and  _134
REMARK   53  A    between atoms: _139  and  _141
REMARK   54  A    between atoms: _141  and  _142
REMARK   55  A    between atoms: _141  and  _144
REMARK   56  A    between atoms: _144  and  _145
REMARK   57  A    between atoms: _150  and  _151
REMARK   58  A    between atoms: _153  and  _155
REMARK   59  A    between atoms: _155  and  _156
REMARK   60  A    between atoms: _155  and  _158
REMARK   61  A    between atoms: _158  and  _159
REMARK   62  A    between atoms: _162  and  _164
REMARK   63  A    between atoms: _164  and  _165
REMARK   64  A    between atoms: _164  and  _167
REMARK   65  A    between atoms: _167  and  _168
REMARK   66  A    between atoms: _168  and  _169
REMARK   67  A    between atoms: _169  and  _170
REMARK   68  A    between atoms: _179  and  _181
REMARK   69  A    between atoms: _181  and  _182
REMARK   70  A    between atoms: _181  and  _184
REMARK   71  A    between atoms: _184  and  _185
REMARK   72  A    between atoms: _190  and  _191
REMARK   73  A    between atoms: _193  and  _195
REMARK   74  A    between atoms: _195  and  _196
REMARK   75  A    between atoms: _195  and  _198
REMARK   76  A    between atoms: _198  and  _199
REMARK   77  A    between atoms: _199  and  _200
REMARK   78  A    between atoms: _205  and  _207
REMARK   79  A    between atoms: _207  and  _208
REMARK   80  A    between atoms: _207  and  _210
REMARK   81  A    between atoms: _210  and  _211
REMARK   82  A    between atoms: _217  and  _219
REMARK   83  A    between atoms: _219  and  _220
REMARK   84  A    between atoms: _219  and  _222
REMARK   85  A    between atoms: _222  and  _223
REMARK   86  A    between atoms: _223  and  _224
REMARK   87  A    between atoms: _224  and  _225
REMARK   88  A    between atoms: _235  and  _236
REMARK   89  A    between atoms: _241  and  _243
REMARK   90  A    between atoms: _243  and  _244
REMARK   91  A    between atoms: _243  and  _246
REMARK   92  A    between atoms: _246  and  _247
REMARK   93  A    between atoms: _249  and  _251
REMARK   94  A    between atoms: _251  and  _252
REMARK   95  A    between atoms: _251  and  _254
REMARK   96  A    between atoms: _254  and  _255
REMARK   97  A    between atoms: _260  and  _261
REMARK   98  A    between atoms: _263  and  _265
REMARK   99  A    between atoms: _265  and  _266
REMARK  100  A    between atoms: _265  and  _268
REMARK  101  A    between atoms: _268  and  _269
REMARK  102  A    between atoms: _272  and  _274
REMARK  103  A    between atoms: _274  and  _275
REMARK  104  A    between atoms: _277  and  _279
REMARK  105  A    between atoms: _279  and  _280
REMARK  106  A    between atoms: _279  and  _282
REMARK  107  A    between atoms: _282  and  _283
REMARK  108  A    between atoms: _286  and  _288
REMARK  109  A    between atoms: _288  and  _289
REMARK  110  A    between atoms: _288  and  _291
REMARK  111  A    between atoms: _291  and  _292
REMARK  112  A    between atoms: _302  and  _304
REMARK  113  A    between atoms: _304  and  _305
REMARK  114  A    between atoms: _304  and  _307
REMARK  115  A    between atoms: _307  and  _308
REMARK  116  A    between atoms: _308  and  _309
REMARK  117  A    between atoms: _309  and  _310
REMARK  118  A    between atoms: _310  and  _311
REMARK  119  A    between atoms: _316  and  _317
REMARK  120  A    between atoms: _322  and  _324
REMARK  121  A    between atoms: _324  and  _325
REMARK  122  A    between atoms: _324  and  _327
REMARK  123  A    between atoms: _327  and  _328
REMARK  124  A    between atoms: _331  and  _333
REMARK  125  A    between atoms: _333  and  _334
REMARK  126  A    between atoms: _333  and  _336
REMARK  127  A    between atoms: _336  and  _337
REMARK  128  A    between atoms: _342  and  _343
REMARK  129  A    between atoms: _345  and  _347
REMARK  130  A    between atoms: _347  and  _348
REMARK  131  A    between atoms: _347  and  _350
REMARK  132  A    between atoms: _350  and  _351
REMARK  133  A    between atoms: _353  and  _355
REMARK  134  A    between atoms: _355  and  _356
REMARK  135  A    between atoms: _359  and  _361
REMARK  136  A    between atoms: _361  and  _362
REMARK  137  A    between atoms: _361  and  _364
REMARK  138  A    between atoms: _364  and  _365
REMARK  139  A    between atoms: _365  and  _366
REMARK  140  A    between atoms: _368  and  _370
REMARK  141  A    between atoms: _370  and  _371
REMARK  142  A    between atoms: _370  and  _373
REMARK  143  A    between atoms: _373  and  _374
REMARK  144  A    between atoms: _374  and  _375
REMARK  145  A    between atoms: _380  and  _382
REMARK  146  A    between atoms: _382  and  _383
REMARK  147  A    between atoms: _382  and  _385
REMARK  148  A    between atoms: _385  and  _386
REMARK  149  A    between atoms: _389  and  _391
REMARK  150  A    between atoms: _391  and  _392
REMARK  151  A    between atoms: _391  and  _394
REMARK  152  A    between atoms: _394  and  _395
REMARK  153  A    between atoms: _400  and  _402
REMARK  154  A    between atoms: _402  and  _403
REMARK  155  A    between atoms: _402  and  _405
REMARK  156  A    between atoms: _405  and  _406
REMARK  157  A    between atoms: _409  and  _411
REMARK  158  A    between atoms: _411  and  _412
REMARK  159  A    between atoms: _411  and  _414
REMARK  160  A    between atoms: _414  and  _415
REMARK  161  A    between atoms: _415  and  _416
REMARK  162  A    between atoms: _416  and  _417
REMARK  163  A    between atoms: _426  and  _428
REMARK  164  A    between atoms: _428  and  _429
REMARK  165  A    between atoms: _428  and  _431
REMARK  166  A    between atoms: _431  and  _432
REMARK  167  A    between atoms: _437  and  _438
REMARK                            x       y       z     vdW  Elec       q    Type
REMARK                         _______ _______ _______ _____ _____    ______ ____
ROOT
ATOM      1  CA  TYR A   4      -0.858 -17.496  23.638  0.00  0.00    +0.153 C 
ENDROOT
BRANCH   1   4
ATOM      2  C   ASP A   3       0.440 -19.539  23.923  0.00  0.00    +0.241 C 
ATOM      3  O   ASP A   3       1.302 -18.970  24.594  0.00  0.00    -0.273 OA
ATOM      4  N   TYR A   4      -0.624 -18.917  23.431  0.00  0.00    -0.297 N 
ATOM      5  H   TYR A   4      -1.314 -19.464  22.878  0.00  0.00    +0.150 HD
BRANCH   2   6
ATOM      6  CA  ASP A   3       0.557 -21.020  23.592  0.00  0.00    +0.160 C 
BRANCH   6   8
ATOM      7  C   PRO A   2       0.852 -20.987  21.191  0.00  0.00    +0.241 C 
ATOM      8  N   ASP A   3       1.392 -21.049  22.402  0.00  0.00    -0.297 N 
ATOM      9  H   ASP A   3       2.425 -21.119  22.501  0.00  0.00    +0.150 HD
ATOM     10  O   PRO A   2      -0.363 -20.954  21.000  0.00  0.00    -0.273 OA
BRANCH   7  14
ATOM     11  C   LYS A   1       1.077 -22.582  18.354  0.00  0.00    +0.241 C 
ATOM     12  O   LYS A   1       1.549 -23.503  19.017  0.00  0.00    -0.273 OA
ATOM     13  N   PRO A   2       1.161 -21.303  18.753  0.00  0.00    -0.272 N 
ATOM     14  CA  PRO A   2       1.824 -20.975  20.018  0.00  0.00    +0.152 C 
ATOM     15  CB  PRO A   2       2.365 -19.580  19.757  0.00  0.00    +0.031 C 
ATOM     16  CG  PRO A   2       1.237 -18.970  18.968  0.00  0.00    +0.024 C 
ATOM     17  CD  PRO A   2       0.852 -20.078  17.991  0.00  0.00    +0.094 C 
BRANCH  11  18
ATOM     18  CA  LYS A   1       0.378 -22.866  17.031  0.00  0.00    +0.145 C 
BRANCH  18  19
ATOM     19  N   LYS A   1       0.885 -24.145  16.554  0.00  0.00    -0.238 NA
ATOM     20  H   LYS A   1       0.380 -25.018  16.806  0.00  0.00    +0.142 HD
ENDBRANCH  18  19
BRANCH  18  21
ATOM     21  CB  LYS A   1      -1.133 -22.934  17.261  0.00  0.00    +0.026 C 
BRANCH  21  22
ATOM     22  CG  LYS A   1      -1.869 -23.992  16.443  0.00  0.00    -0.000 C 
BRANCH  22  23
ATOM     23  CD  LYS A   1      -1.511 -25.401  16.902  0.00  0.00    -0.024 C 
BRANCH  23  24
ATOM     24  CE  LYS A   1      -2.470 -26.438  16.338  0.00  0.00    -0.086 C 
BRANCH  24  25
ATOM     25  NZ  LYS A   1      -3.855 -26.266  16.862  0.00  0.00    +0.380 N 
ATOM     26  HZ1 LYS A   1      -3.847 -26.361  17.898  0.00  0.00    -0.089 HD
ATOM     27  HZ2 LYS A   1      -4.208 -25.323  16.602  0.00  0.00    -0.089 HD
ATOM     28  HZ3 LYS A   1      -4.473 -26.994  16.450  0.00  0.00    -0.089 HD
ENDBRANCH  24  25
ENDBRANCH  23  24
ENDBRANCH  22  23
ENDBRANCH  21  22
ENDBRANCH  18  21
ENDBRANCH  11  18
ENDBRANCH   7  14
ENDBRANCH   6   8
BRANCH   6  29
ATOM     29  CB  ASP A   3       1.222 -21.763  24.753  0.00  0.00    +0.143 C 
BRANCH  29  30
ATOM     30  CG  ASP A   3       0.325 -21.846  25.978  0.00  0.00    +0.367 C 
ATOM     31  OD2 ASP A   3       0.332 -22.893  26.659  0.00  0.00    -0.246 OA
ATOM     32  OD1 ASP A   3      -0.382 -20.857  26.266  0.00  0.00    -0.246 OA
ENDBRANCH  29  30
ENDBRANCH   6  29
ENDBRANCH   2   6
ENDBRANCH   1   4
BRANCH   1  33
ATOM     33  C   TYR A   4      -0.832 -17.051  25.092  0.00  0.00    +0.241 C 
ATOM     34  N   SER A   5      -1.264 -17.922  25.998  0.00  0.00    -0.295 N 
ATOM     35  H   SER A   5      -1.608 -18.856  25.696  0.00  0.00    +0.150 HD
ATOM     36  O   TYR A   4      -0.429 -15.925  25.391  0.00  0.00    -0.273 OA
BRANCH  34  37
ATOM     37  CA  SER A   5      -1.257 -17.574  27.413  0.00  0.00    +0.178 C 
BRANCH  37  38
ATOM     38  C   SER A   5       0.185 -17.526  27.906  0.00  0.00    +0.243 C 
ATOM     39  O   SER A   5       0.448 -17.165  29.054  0.00  0.00    -0.273 OA
ATOM     40  N   ALA A   6       1.116 -17.882  27.023  0.00  0.00    -0.297 N 
ATOM     41  H   ALA A   6       0.822 -18.155  26.063  0.00  0.00    +0.150 HD
BRANCH  40  42
ATOM     42  CA  ALA A   6       2.536 -17.901  27.360  0.00  0.00    +0.149 C 
ATOM     43  CB  ALA A   6       3.105 -19.297  27.111  0.00  0.00    +0.031 C 
BRANCH  42  44
ATOM     44  C   ALA A   6       3.361 -16.871  26.596  0.00  0.00    +0.241 C 
ATOM     45  O   ALA A   6       4.587 -16.965  26.561  0.00  0.00    -0.273 OA
ATOM     46  N   MET A   7       2.701 -15.890  25.988  0.00  0.00    -0.298 N 
ATOM     47  H   MET A   7       1.664 -15.848  26.050  0.00  0.00    +0.150 HD
BRANCH  46  48
ATOM     48  CA  MET A   7       3.425 -14.870  25.233  0.00  0.00    +0.138 C 
BRANCH  48  49
ATOM     49  C   MET A   7       3.786 -13.665  26.085  0.00  0.00    +0.227 C 
ATOM     50  O   MET A   7       3.036 -13.271  26.978  0.00  0.00    -0.286 OA
ENDBRANCH  48  49
BRANCH  48  51
ATOM     51  CB  MET A   7       2.610 -14.418  24.019  0.00  0.00    +0.039 C 
BRANCH  51  52
ATOM     52  CG  MET A   7       2.273 -15.544  23.055  0.00  0.00    +0.060 C 
BRANCH  52  53
ATOM     53  SD  MET A   7       1.696 -14.958  21.448  0.00  0.00    -0.139 S 
ATOM     54  CE  MET A   7       2.862 -15.787  20.365  0.00  0.00    +0.069 C 
ENDBRANCH  52  53
ENDBRANCH  51  52
ENDBRANCH  48  51
ENDBRANCH  46  48
ENDBRANCH  42  44
ENDBRANCH  40  42
ENDBRANCH  37  38
BRANCH  37  55
ATOM     55  CB  SER A   5      -2.048 -18.603  28.227  0.00  0.00    +0.166 C 
BRANCH  55  56
ATOM     56  OG  SER A   5      -1.475 -19.894  28.131  0.00  0.00    -0.380 OA
ATOM     57  H   SER A   5      -1.469 -20.181  27.184  0.00  0.00    +0.211 HD
ENDBRANCH  55  56
ENDBRANCH  37  55
ENDBRANCH  34  37
ENDBRANCH   1  33
BRANCH   1  58
ATOM     58  CB  TYR A   4      -2.183 -17.107  23.000  0.00  0.00    +0.055 C 
BRANCH  58  59
ATOM     59  CG  TYR A   4      -2.187 -17.281  21.502  0.00  0.00    -0.020 A 
ATOM     60  CD2 TYR A   4      -2.837 -18.361  20.910  0.00  0.00    -0.001 A 
ATOM     61  CE2 TYR A   4      -2.809 -18.545  19.531  0.00  0.00    +0.036 A 
ATOM     62  CZ  TYR A   4      -2.128 -17.640  18.734  0.00  0.00    +0.134 A 
ATOM     63  CE1 TYR A   4      -1.479 -16.558  19.298  0.00  0.00    +0.036 A 
ATOM     64  CD1 TYR A   4      -1.510 -16.384  20.677  0.00  0.00    -0.001 A 
BRANCH  62  65
ATOM     65  OH  TYR A   4      -2.088 -17.825  17.373  0.00  0.00    -0.506 OA
ATOM     66  HH  TYR A   4      -1.565 -17.095  16.957  0.00  0.00    +0.292 HD
ENDBRANCH  62  65
ENDBRANCH  58  59
ENDBRANCH   1  58
TORSDOF 28
REMARK  Name = ../refined-set-2016/3wqm/3wqm_pocket.pdb
REMARK  167 active torsions:
REMARK  status: ('A' for Active; 'I' for Inactive)
REMARK    1  A    between atoms: _1  and  _3
REMARK    2  A    between atoms: _3  and  _4
REMARK    3  A    between atoms: _3  and  _6
REMARK    4  A    between atoms: _6  and  _7
REMARK    5  A    between atoms: _13  and  _15
REMARK    6  A    between atoms: _15  and  _16
REMARK    7  A    between atoms: _15  and  _18
REMARK    8  A    between atoms: _18  and  _19
REMARK    9  A    between atoms: _19  and  _21
REMARK   10  A    between atoms: _22  and  _24
REMARK   11  A    between atoms: _24  and  _25
REMARK   12  A    between atoms: _27  and  _29
REMARK   13  A    between atoms: _29  and  _30
REMARK   14  A    between atoms: _29  and  _32
REMARK   15  A    between atoms: _32  and  _33
REMARK   16  A    between atoms: _36  and  _38
REMARK   17  A    between atoms: _38  and  _39
REMARK   18  A    between atoms: _38  and  _41
REMARK   19  A    between atoms: _41  and  _42
REMARK   20  A    between atoms: _42  and  _43
REMARK   21  A    between atoms: _43  and  _44
REMARK   22  A    between atoms: _53  and  _55
REMARK   23  A    between atoms: _55  and  _56
REMARK   24  A    between atoms: _55  and  _58
REMARK   25  A    between atoms: _58  and  _59
REMARK   26  A    between atoms: _59  and  _60
REMARK   27  A    between atoms: _60  and  _61
REMARK   28  A    between atoms: _70  and  _72
REMARK   29  A    between atoms: _72  and  _73
REMARK   30  A    between atoms: _72  and  _75
REMARK   31  A    between atoms: _75  and  _76
REMARK   32  A    between atoms: _86  and  _88
REMARK   33  A    between atoms: _88  and  _89
REMARK   34  A    between atoms: _88  and  _91
REMARK   35  A    between atoms: _91  and  _92
REMARK   36  A    between atoms: _98  and  _100
REMARK   37  A    between atoms: _100  and  _101
REMARK   38  A    between atoms: _100  and  _103
REMARK   39  A    between atoms: _103  and  _104
REMARK   40  A    between atoms: _109  and  _111
REMARK   41  A    between atoms: _111  and  _112
REMARK   42  A    between atoms: _111  and  _114
REMARK   43  A    between atoms: _114  and  _115
REMARK   44  A    between atoms: _118  and  _120
REMARK   45  A    between atoms: _120  and  _121
REMARK   46  A    between atoms: _120  and  _123
REMARK   47  A    between atoms: _123  and  _124
REMARK   48  A    between atoms: _124  and  _125
REMARK   49  A    between atoms: _128  and  _130
REMARK   50  A    between atoms: _130  and  _131
REMARK   51  A    between atoms: _130  and  _133
REMARK   52  A    between atoms: _133  and  _134
REMARK   53  A    between atoms: _139  and  _141
REMARK   54  A    between atoms: _141  and  _142
REMARK   55  A    between atoms: _141  and  _144
REMARK   56  A    between atoms: _144  and  _145
REMARK   57  A    between atoms: _150  and  _151
REMARK   58  A    between atoms: _153  and  _155
REMARK   59  A    between atoms: _155  and  _156
REMARK   60  A    between atoms: _155  and  _158
REMARK   61  A    between atoms: _158  and  _159
REMARK   62  A    between atoms: _162  and  _164
REMARK   63  A    between atoms: _164  and  _165
REMARK   64  A    between atoms: _164  and  _167
REMARK   65  A    between atoms: _167  and  _168
REMARK   66  A    between atoms: _168  and  _169
REMARK   67  A    between atoms: _169  and  _170
REMARK   68  A    between atoms: _179  and  _181
REMARK   69  A    between atoms: _181  and  _182
REMARK   70  A    between atoms: _181  and  _184
REMARK   71  A    between atoms: _184  and  _185
REMARK   72  A    between atoms: _190  and  _191
REMARK   73  A    between atoms: _193  and  _195
REMARK   74  A    between atoms: _195  and  _196
REMARK   75  A    between atoms: _195  and  _198
REMARK   76  A    between atoms: _198  and  _199
REMARK   77  A    between atoms: _199  and  _200
REMARK   78  A    between atoms: _205  and  _207
REMARK   79  A    between atoms: _207  and  _208
REMARK   80  A    between atoms: _207  and  _210
REMARK   81  A    between atoms: _210  and  _211
REMARK   82  A    between atoms: _217  and  _219
REMARK   83  A    between atoms: _219  and  _220
REMARK   84  A    between atoms: _219  and  _222
REMARK   85  A    between atoms: _222  and  _223
REMARK   86  A    between atoms: _223  and  _224
REMARK   87  A    between atoms: _224  and  _225
REMARK   88  A    between atoms: _235  and  _236
REMARK   89  A    between atoms: _241  and  _243
REMARK   90  A    between atoms: _243  and  _244
REMARK   91  A    between atoms: _243  and  _246
REMARK   92  A    between atoms: _246  and  _247
REMARK   93  A    between atoms: _249  and  _251
REMARK   94  A    between atoms: _251  and  _252
REMARK   95  A    between atoms: _251  and  _254
REMARK   96  A    between atoms: _254  and  _255
REMARK   97  A    between atoms: _260  and  _261
REMARK   98  A    between atoms: _263  and  _265
REMARK   99  A    between atoms: _265  and  _266
REMARK  100  A    between atoms: _265  and  _268
REMARK  101  A    between atoms: _268  and  _269
REMARK  102  A    between atoms: _272  and  _274
REMARK  103  A    between atoms: _274  and  _275
REMARK  104  A    between atoms: _277  and  _279
REMARK  105  A    between atoms: _279  and  _280
REMARK  106  A    between atoms: _279  and  _282
REMARK  107  A    between atoms: _282  and  _283
REMARK  108  A    between atoms: _286  and  _288
REMARK  109  A    between atoms: _288  and  _289
REMARK  110  A    between atoms: _288  and  _291
REMARK  111  A    between atoms: _291  and  _292
REMARK  112  A    between atoms: _302  and  _304
REMARK  113  A    between atoms: _304  and  _305
REMARK  114  A    between atoms: _304  and  _307
REMARK  115  A    between atoms: _307  and  _308
REMARK  116  A    between atoms: _308  and  _309
REMARK  117  A    between atoms: _309  and  _310
REMARK  118  A    between atoms: _310  and  _311
REMARK  119  A    between atoms: _316  and  _317
REMARK  120  A    between atoms: _322  and  _324
REMARK  121  A    between atoms: _324  and  _325
REMARK  122  A    between atoms: _324  and  _327
REMARK  123  A    between atoms: _327  and  _328
REMARK  124  A    between atoms: _331  and  _333
REMARK  125  A    between atoms: _333  and  _334
REMARK  126  A    between atoms: _333  and  _336
REMARK  127  A    between atoms: _336  and  _337
REMARK  128  A    between atoms: _342  and  _343
REMARK  129  A    between atoms: _345  and  _347
REMARK  130  A    between atoms: _347  and  _348
REMARK  131  A    between atoms: _347  and  _350
REMARK  132  A    between atoms: _350  and  _351
REMARK  133  A    between atoms: _353  and  _355
REMARK  134  A    between atoms: _355  and  _356
REMARK  135  A    between atoms: _359  and  _361
REMARK  136  A    between atoms: _361  and  _362
REMARK  137  A    between atoms: _361  and  _364
REMARK  138  A    between atoms: _364  and  _365
REMARK  139  A    between atoms: _365  and  _366
REMARK  140  A    between atoms: _368  and  _370
REMARK  141  A    between atoms: _370  and  _371
REMARK  142  A    between atoms: _370  and  _373
REMARK  143  A    between atoms: _373  and  _374
REMARK  144  A    between atoms: _374  and  _375
REMARK  145  A    between atoms: _380  and  _382
REMARK  146  A    between atoms: _382  and  _383
REMARK  147  A    between atoms: _382  and  _385
REMARK  148  A    between atoms: _385  and  _386
REMARK  149  A    between atoms: _389  and  _391
REMARK  150  A    between atoms: _391  and  _392
REMARK  151  A    between atoms: _391  and  _394
REMARK  152  A    between atoms: _394  and  _395
REMARK  153  A    between atoms: _400  and  _402
REMARK  154  A    between atoms: _402  and  _403
REMARK  155  A    between atoms: _402  and  _405
REMARK  156  A    between atoms: _405  and  _406
REMARK  157  A    between atoms: _409  and  _411
REMARK  158  A    between atoms: _411  and  _412
REMARK  159  A    between atoms: _411  and  _414
REMARK  160  A    between atoms: _414  and  _415
REMARK  161  A    between atoms: _415  and  _416
REMARK  162  A    between atoms: _416  and  _417
REMARK  163  A    between atoms: _426  and  _428
REMARK  164  A    between atoms: _428  and  _429
REMARK  165  A    between atoms: _428  and  _431
REMARK  166  A    between atoms: _431  and  _432
REMARK  167  A    between atoms: _437  and  _438
REMARK                            x       y       z     vdW  Elec       q    Type
REMARK                         _______ _______ _______ _____ _____    ______ ____
ROOT
ATOM      1  CA  LEU A   2       0.688  -9.501  22.908  0.00  0.00    +0.149 C 
ENDROOT
BRANCH   1   3
ATOM      2  C   GLN A   1       2.818  -9.499  21.767  0.00  0.00    +0.238 C 
ATOM      3  N   LEU A   2       2.120  -9.731  22.870  0.00  0.00    -0.297 N 
ATOM      4  H   LEU A   2       2.606 -10.083  23.720  0.00  0.00    +0.150 HD
ATOM      5  O   GLN A   1       2.308  -9.081  20.731  0.00  0.00    -0.274 OA
BRANCH   2   6
ATOM      6  CA  GLN A   1       4.308  -9.786  21.846  0.00  0.00    +0.145 C 
BRANCH   6   7
ATOM      7  N   GLN A   1       4.901  -9.070  22.971  0.00  0.00    -0.238 NA
ATOM      8  H   GLN A   1       5.406  -9.604  23.707  0.00  0.00    +0.142 HD
ENDBRANCH   6   7
BRANCH   6   9
ATOM      9  CB  GLN A   1       4.502 -11.294  21.994  0.00  0.00    +0.036 C 
BRANCH   9  10
ATOM     10  CG  GLN A   1       5.902 -11.795  21.724  0.00  0.00    +0.087 C 
BRANCH  10  11
ATOM     11  CD  GLN A   1       6.006 -13.298  21.906  0.00  0.00    +0.219 C 
ATOM     12  OE1 GLN A   1       5.690 -13.827  22.976  0.00  0.00    -0.275 OA
ATOM     13  NE2 GLN A   1       6.447 -13.995  20.862  0.00  0.00    -0.329 N 
ATOM     14 HE21 GLN A   1       6.537 -15.029  20.928  0.00  0.00    +0.145 HD
ATOM     15 HE22 GLN A   1       6.702 -13.506  19.980  0.00  0.00    +0.145 HD
ENDBRANCH  10  11
ENDBRANCH   9  10
ENDBRANCH   6   9
ENDBRANCH   2   6
ENDBRANCH   1   3
BRANCH   1  16
ATOM     16  C   LEU A   2       0.377  -8.029  22.683  0.00  0.00    +0.241 C 
ATOM     17  N   ASN A   3       1.380  -7.183  22.881  0.00  0.00    -0.298 N 
ATOM     18  H   ASN A   3       2.306  -7.556  23.173  0.00  0.00    +0.150 HD
ATOM     19  O   LEU A   2      -0.740  -7.671  22.315  0.00  0.00    -0.273 OA
BRANCH  17  20
ATOM     20  CA  ASN A   3       1.220  -5.747  22.701  0.00  0.00    +0.146 C 
BRANCH  20  21
ATOM     21  C   ASN A   3       1.414  -5.348  21.237  0.00  0.00    +0.227 C 
ATOM     22  O   ASN A   3       0.742  -4.450  20.728  0.00  0.00    -0.286 OA
ENDBRANCH  20  21
BRANCH  20  23
ATOM     23  CB  ASN A   3       2.223  -5.010  23.578  0.00  0.00    +0.112 C 
BRANCH  23  24
ATOM     24  CG  ASN A   3       1.823  -3.588  23.831  0.00  0.00    +0.222 C 
ATOM     25  ND2 ASN A   3       1.448  -3.297  25.071  0.00  0.00    -0.329 N 
ATOM     26 HD21 ASN A   3       1.453  -4.036  25.803  0.00  0.00    +0.145 HD
ATOM     27 HD22 ASN A   3       1.149  -2.330  25.311  0.00  0.00    +0.145 HD
ATOM     28  OD1 ASN A   3       1.837  -2.754  22.925  0.00  0.00    -0.275 OA
ENDBRANCH  23  24
ENDBRANCH  20  23
ENDBRANCH  17  20
ENDBRANCH   1  16
BRANCH   1  29
ATOM     29  CB  LEU A   2       0.116  -9.972  24.244  0.00  0.00    +0.029 C 
BRANCH  29  30
ATOM     30  CG  LEU A   2       0.306 -11.469  24.529  0.00  0.00    +0.002 C 
ATOM     31  CD2 LEU A   2      -0.288 -11.802  25.883  0.00  0.00    +0.000 C 
ATOM     32  CD1 LEU A   2      -0.361 -12.309  23.438  0.00  0.00    +0.000 C 
ENDBRANCH  29  30
ENDBRANCH   1  29
TORSDOF 13
REMARK  Name = ../refined-set-2016/3wqm/3wqm_pocket.pdb
REMARK  167 active torsions:
REMARK  status: ('A' for Active; 'I' for Inactive)
REMARK    1  A    between atoms: _1  and  _3
REMARK    2  A    between atoms: _3  and  _4
REMARK    3  A    between atoms: _3  and  _6
REMARK    4  A    between atoms: _6  and  _7
REMARK    5  A    between atoms: _13  and  _15
REMARK    6  A    between atoms: _15  and  _16
REMARK    7  A    between atoms: _15  and  _18
REMARK    8  A    between atoms: _18  and  _19
REMARK    9  A    between atoms: _19  and  _21
REMARK   10  A    between atoms: _22  and  _24
REMARK   11  A    between atoms: _24  and  _25
REMARK   12  A    between atoms: _27  and  _29
REMARK   13  A    between atoms: _29  and  _30
REMARK   14  A    between atoms: _29  and  _32
REMARK   15  A    between atoms: _32  and  _33
REMARK   16  A    between atoms: _36  and  _38
REMARK   17  A    between atoms: _38  and  _39
REMARK   18  A    between atoms: _38  and  _41
REMARK   19  A    between atoms: _41  and  _42
REMARK   20  A    between atoms: _42  and  _43
REMARK   21  A    between atoms: _43  and  _44
REMARK   22  A    between atoms: _53  and  _55
REMARK   23  A    between atoms: _55  and  _56
REMARK   24  A    between atoms: _55  and  _58
REMARK   25  A    between atoms: _58  and  _59
REMARK   26  A    between atoms: _59  and  _60
REMARK   27  A    between atoms: _60  and  _61
REMARK   28  A    between atoms: _70  and  _72
REMARK   29  A    between atoms: _72  and  _73
REMARK   30  A    between atoms: _72  and  _75
REMARK   31  A    between atoms: _75  and  _76
REMARK   32  A    between atoms: _86  and  _88
REMARK   33  A    between atoms: _88  and  _89
REMARK   34  A    between atoms: _88  and  _91
REMARK   35  A    between atoms: _91  and  _92
REMARK   36  A    between atoms: _98  and  _100
REMARK   37  A    between atoms: _100  and  _101
REMARK   38  A    between atoms: _100  and  _103
REMARK   39  A    between atoms: _103  and  _104
REMARK   40  A    between atoms: _109  and  _111
REMARK   41  A    between atoms: _111  and  _112
REMARK   42  A    between atoms: _111  and  _114
REMARK   43  A    between atoms: _114  and  _115
REMARK   44  A    between atoms: _118  and  _120
REMARK   45  A    between atoms: _120  and  _121
REMARK   46  A    between atoms: _120  and  _123
REMARK   47  A    between atoms: _123  and  _124
REMARK   48  A    between atoms: _124  and  _125
REMARK   49  A    between atoms: _128  and  _130
REMARK   50  A    between atoms: _130  and  _131
REMARK   51  A    between atoms: _130  and  _133
REMARK   52  A    between atoms: _133  and  _134
REMARK   53  A    between atoms: _139  and  _141
REMARK   54  A    between atoms: _141  and  _142
REMARK   55  A    between atoms: _141  and  _144
REMARK   56  A    between atoms: _144  and  _145
REMARK   57  A    between atoms: _150  and  _151
REMARK   58  A    between atoms: _153  and  _155
REMARK   59  A    between atoms: _155  and  _156
REMARK   60  A    between atoms: _155  and  _158
REMARK   61  A    between atoms: _158  and  _159
REMARK   62  A    between atoms: _162  and  _164
REMARK   63  A    between atoms: _164  and  _165
REMARK   64  A    between atoms: _164  and  _167
REMARK   65  A    between atoms: _167  and  _168
REMARK   66  A    between atoms: _168  and  _169
REMARK   67  A    between atoms: _169  and  _170
REMARK   68  A    between atoms: _179  and  _181
REMARK   69  A    between atoms: _181  and  _182
REMARK   70  A    between atoms: _181  and  _184
REMARK   71  A    between atoms: _184  and  _185
REMARK   72  A    between atoms: _190  and  _191
REMARK   73  A    between atoms: _193  and  _195
REMARK   74  A    between atoms: _195  and  _196
REMARK   75  A    between atoms: _195  and  _198
REMARK   76  A    between atoms: _198  and  _199
REMARK   77  A    between atoms: _199  and  _200
REMARK   78  A    between atoms: _205  and  _207
REMARK   79  A    between atoms: _207  and  _208
REMARK   80  A    between atoms: _207  and  _210
REMARK   81  A    between atoms: _210  and  _211
REMARK   82  A    between atoms: _217  and  _219
REMARK   83  A    between atoms: _219  and  _220
REMARK   84  A    between atoms: _219  and  _222
REMARK   85  A    between atoms: _222  and  _223
REMARK   86  A    between atoms: _223  and  _224
REMARK   87  A    between atoms: _224  and  _225
REMARK   88  A    between atoms: _235  and  _236
REMARK   89  A    between atoms: _241  and  _243
REMARK   90  A    between atoms: _243  and  _244
REMARK   91  A    between atoms: _243  and  _246
REMARK   92  A    between atoms: _246  and  _247
REMARK   93  A    between atoms: _249  and  _251
REMARK   94  A    between atoms: _251  and  _252
REMARK   95  A    between atoms: _251  and  _254
REMARK   96  A    between atoms: _254  and  _255
REMARK   97  A    between atoms: _260  and  _261
REMARK   98  A    between atoms: _263  and  _265
REMARK   99  A    between atoms: _265  and  _266
REMARK  100  A    between atoms: _265  and  _268
REMARK  101  A    between atoms: _268  and  _269
REMARK  102  A    between atoms: _272  and  _274
REMARK  103  A    between atoms: _274  and  _275
REMARK  104  A    between atoms: _277  and  _279
REMARK  105  A    between atoms: _279  and  _280
REMARK  106  A    between atoms: _279  and  _282
REMARK  107  A    between atoms: _282  and  _283
REMARK  108  A    between atoms: _286  and  _288
REMARK  109  A    between atoms: _288  and  _289
REMARK  110  A    between atoms: _288  and  _291
REMARK  111  A    between atoms: _291  and  _292
REMARK  112  A    between atoms: _302  and  _304
REMARK  113  A    between atoms: _304  and  _305
REMARK  114  A    between atoms: _304  and  _307
REMARK  115  A    between atoms: _307  and  _308
REMARK  116  A    between atoms: _308  and  _309
REMARK  117  A    between atoms: _309  and  _310
REMARK  118  A    between atoms: _310  and  _311
REMARK  119  A    between atoms: _316  and  _317
REMARK  120  A    between atoms: _322  and  _324
REMARK  121  A    between atoms: _324  and  _325
REMARK  122  A    between atoms: _324  and  _327
REMARK  123  A    between atoms: _327  and  _328
REMARK  124  A    between atoms: _331  and  _333
REMARK  125  A    between atoms: _333  and  _334
REMARK  126  A    between atoms: _333  and  _336
REMARK  127  A    between atoms: _336  and  _337
REMARK  128  A    between atoms: _342  and  _343
REMARK  129  A    between atoms: _345  and  _347
REMARK  130  A    between atoms: _347  and  _348
REMARK  131  A    between atoms: _347  and  _350
REMARK  132  A    between atoms: _350  and  _351
REMARK  133  A    between atoms: _353  and  _355
REMARK  134  A    between atoms: _355  and  _356
REMARK  135  A    between atoms: _359  and  _361
REMARK  136  A    between atoms: _361  and  _362
REMARK  137  A    between atoms: _361  and  _364
REMARK  138  A    between atoms: _364  and  _365
REMARK  139  A    between atoms: _365  and  _366
REMARK  140  A    between atoms: _368  and  _370
REMARK  141  A    between atoms: _370  and  _371
REMARK  142  A    between atoms: _370  and  _373
REMARK  143  A    between atoms: _373  and  _374
REMARK  144  A    between atoms: _374  and  _375
REMARK  145  A    between atoms: _380  and  _382
REMARK  146  A    between atoms: _382  and  _383
REMARK  147  A    between atoms: _382  and  _385
REMARK  148  A    between atoms: _385  and  _386
REMARK  149  A    between atoms: _389  and  _391
REMARK  150  A    between atoms: _391  and  _392
REMARK  151  A    between atoms: _391  and  _394
REMARK  152  A    between atoms: _394  and  _395
REMARK  153  A    between atoms: _400  and  _402
REMARK  154  A    between atoms: _402  and  _403
REMARK  155  A    between atoms: _402  and  _405
REMARK  156  A    between atoms: _405  and  _406
REMARK  157  A    between atoms: _409  and  _411
REMARK  158  A    between atoms: _411  and  _412
REMARK  159  A    between atoms: _411  and  _414
REMARK  160  A    between atoms: _414  and  _415
REMARK  161  A    between atoms: _415  and  _416
REMARK  162  A    between atoms: _416  and  _417
REMARK  163  A    between atoms: _426  and  _428
REMARK  164  A    between atoms: _428  and  _429
REMARK  165  A    between atoms: _428  and  _431
REMARK  166  A    between atoms: _431  and  _432
REMARK  167  A    between atoms: _437  and  _438
REMARK                            x       y       z     vdW  Elec       q    Type
REMARK                         _______ _______ _______ _____ _____    ______ ____
ROOT
ATOM      1  CA  ARG A   2      -2.818  -5.641  19.824  0.00  0.00    +0.137 C 
ENDROOT
BRANCH   1   3
ATOM      2  C   LEU A   1      -1.504  -7.052  18.354  0.00  0.00    +0.238 C 
ATOM      3  N   ARG A   2      -1.716  -6.553  19.568  0.00  0.00    -0.298 N 
ATOM      4  H   ARG A   2      -1.082  -6.820  20.348  0.00  0.00    +0.150 HD
ATOM      5  O   LEU A   1      -2.222  -6.793  17.387  0.00  0.00    -0.274 OA
BRANCH   2   6
ATOM      6  CA  LEU A   1      -0.312  -7.984  18.210  0.00  0.00    +0.145 C 
BRANCH   6   7
ATOM      7  N   LEU A   1       0.855  -7.380  18.840  0.00  0.00    -0.238 NA
ATOM      8  H   LEU A   1       1.260  -7.833  19.684  0.00  0.00    +0.142 HD
ENDBRANCH   6   7
BRANCH   6   9
ATOM      9  CB  LEU A   1      -0.633  -9.330  18.866  0.00  0.00    +0.026 C 
BRANCH   9  10
ATOM     10  CG  LEU A   1      -1.925 -10.023  18.420  0.00  0.00    +0.002 C 
ATOM     11  CD2 LEU A   1      -2.134 -11.295  19.238  0.00  0.00    +0.000 C 
ATOM     12  CD1 LEU A   1      -1.849 -10.346  16.935  0.00  0.00    +0.000 C 
ENDBRANCH   9  10
ENDBRANCH   6   9
ENDBRANCH   2   6
ENDBRANCH   1   3
BRANCH   1  13
ATOM     13  C   ARG A   2      -2.710  -4.458  18.884  0.00  0.00    +0.227 C 
ATOM     14  O   ARG A   2      -3.719  -3.928  18.414  0.00  0.00    -0.286 OA
ENDBRANCH   1  13
BRANCH   1  15
ATOM     15  CB  ARG A   2      -2.786  -5.133  21.266  0.00  0.00    +0.031 C 
BRANCH  15  16
ATOM     16  CG  ARG A   2      -3.804  -4.028  21.538  0.00  0.00    +0.045 C 
BRANCH  16  17
ATOM     17  CD  ARG A   2      -3.652  -3.453  22.934  0.00  0.00    +0.174 C 
BRANCH  17  18
ATOM     18  NE  ARG A   2      -3.741  -4.495  23.950  0.00  0.00    -0.265 N 
ATOM     19  CZ  ARG A   2      -2.760  -4.806  24.790  0.00  0.00    +0.342 C 
ATOM     20  NH2 ARG A   2      -2.933  -5.775  25.679  0.00  0.00    -0.292 N 
ATOM     21 HH21 ARG A   2      -2.166  -6.020  26.337  0.00  0.00    +0.255 HD
ATOM     22 HH22 ARG A   2      -3.836  -6.290  25.718  0.00  0.00    +0.255 HD
ATOM     23  NH1 ARG A   2      -1.610  -4.144  24.748  0.00  0.00    -0.292 N 
ATOM     24 HH11 ARG A   2      -0.844  -4.390  25.407  0.00  0.00    +0.255 HD
ATOM     25 HH12 ARG A   2      -1.475  -3.379  24.056  0.00  0.00    +0.255 HD
ATOM     26  HE  ARG A   2      -4.630  -5.029  24.022  0.00  0.00    +0.259 HD
ENDBRANCH  17  18
ENDBRANCH  16  17
ENDBRANCH  15  16
ENDBRANCH   1  15
TORSDOF 10
REMARK  Name = ../refined-set-2016/3wqm/3wqm_pocket.pdb
REMARK  167 active torsions:
REMARK  status: ('A' for Active; 'I' for Inactive)
REMARK    1  A    between atoms: _1  and  _3
REMARK    2  A    between atoms: _3  and  _4
REMARK    3  A    between atoms: _3  and  _6
REMARK    4  A    between atoms: _6  and  _7
REMARK    5  A    between atoms: _13  and  _15
REMARK    6  A    between atoms: _15  and  _16
REMARK    7  A    between atoms: _15  and  _18
REMARK    8  A    between atoms: _18  and  _19
REMARK    9  A    between atoms: _19  and  _21
REMARK   10  A    between atoms: _22  and  _24
REMARK   11  A    between atoms: _24  and  _25
REMARK   12  A    between atoms: _27  and  _29
REMARK   13  A    between atoms: _29  and  _30
REMARK   14  A    between atoms: _29  and  _32
REMARK   15  A    between atoms: _32  and  _33
REMARK   16  A    between atoms: _36  and  _38
REMARK   17  A    between atoms: _38  and  _39
REMARK   18  A    between atoms: _38  and  _41
REMARK   19  A    between atoms: _41  and  _42
REMARK   20  A    between atoms: _42  and  _43
REMARK   21  A    between atoms: _43  and  _44
REMARK   22  A    between atoms: _53  and  _55
REMARK   23  A    between atoms: _55  and  _56
REMARK   24  A    between atoms: _55  and  _58
REMARK   25  A    between atoms: _58  and  _59
REMARK   26  A    between atoms: _59  and  _60
REMARK   27  A    between atoms: _60  and  _61
REMARK   28  A    between atoms: _70  and  _72
REMARK   29  A    between atoms: _72  and  _73
REMARK   30  A    between atoms: _72  and  _75
REMARK   31  A    between atoms: _75  and  _76
REMARK   32  A    between atoms: _86  and  _88
REMARK   33  A    between atoms: _88  and  _89
REMARK   34  A    between atoms: _88  and  _91
REMARK   35  A    between atoms: _91  and  _92
REMARK   36  A    between atoms: _98  and  _100
REMARK   37  A    between atoms: _100  and  _101
REMARK   38  A    between atoms: _100  and  _103
REMARK   39  A    between atoms: _103  and  _104
REMARK   40  A    between atoms: _109  and  _111
REMARK   41  A    between atoms: _111  and  _112
REMARK   42  A    between atoms: _111  and  _114
REMARK   43  A    between atoms: _114  and  _115
REMARK   44  A    between atoms: _118  and  _120
REMARK   45  A    between atoms: _120  and  _121
REMARK   46  A    between atoms: _120  and  _123
REMARK   47  A    between atoms: _123  and  _124
REMARK   48  A    between atoms: _124  and  _125
REMARK   49  A    between atoms: _128  and  _130
REMARK   50  A    between atoms: _130  and  _131
REMARK   51  A    between atoms: _130  and  _133
REMARK   52  A    between atoms: _133  and  _134
REMARK   53  A    between atoms: _139  and  _141
REMARK   54  A    between atoms: _141  and  _142
REMARK   55  A    between atoms: _141  and  _144
REMARK   56  A    between atoms: _144  and  _145
REMARK   57  A    between atoms: _150  and  _151
REMARK   58  A    between atoms: _153  and  _155
REMARK   59  A    between atoms: _155  and  _156
REMARK   60  A    between atoms: _155  and  _158
REMARK   61  A    between atoms: _158  and  _159
REMARK   62  A    between atoms: _162  and  _164
REMARK   63  A    between atoms: _164  and  _165
REMARK   64  A    between atoms: _164  and  _167
REMARK   65  A    between atoms: _167  and  _168
REMARK   66  A    between atoms: _168  and  _169
REMARK   67  A    between atoms: _169  and  _170
REMARK   68  A    between atoms: _179  and  _181
REMARK   69  A    between atoms: _181  and  _182
REMARK   70  A    between atoms: _181  and  _184
REMARK   71  A    between atoms: _184  and  _185
REMARK   72  A    between atoms: _190  and  _191
REMARK   73  A    between atoms: _193  and  _195
REMARK   74  A    between atoms: _195  and  _196
REMARK   75  A    between atoms: _195  and  _198
REMARK   76  A    between atoms: _198  and  _199
REMARK   77  A    between atoms: _199  and  _200
REMARK   78  A    between atoms: _205  and  _207
REMARK   79  A    between atoms: _207  and  _208
REMARK   80  A    between atoms: _207  and  _210
REMARK   81  A    between atoms: _210  and  _211
REMARK   82  A    between atoms: _217  and  _219
REMARK   83  A    between atoms: _219  and  _220
REMARK   84  A    between atoms: _219  and  _222
REMARK   85  A    between atoms: _222  and  _223
REMARK   86  A    between atoms: _223  and  _224
REMARK   87  A    between atoms: _224  and  _225
REMARK   88  A    between atoms: _235  and  _236
REMARK   89  A    between atoms: _241  and  _243
REMARK   90  A    between atoms: _243  and  _244
REMARK   91  A    between atoms: _243  and  _246
REMARK   92  A    between atoms: _246  and  _247
REMARK   93  A    between atoms: _249  and  _251
REMARK   94  A    between atoms: _251  and  _252
REMARK   95  A    between atoms: _251  and  _254
REMARK   96  A    between atoms: _254  and  _255
REMARK   97  A    between atoms: _260  and  _261
REMARK   98  A    between atoms: _263  and  _265
REMARK   99  A    between atoms: _265  and  _266
REMARK  100  A    between atoms: _265  and  _268
REMARK  101  A    between atoms: _268  and  _269
REMARK  102  A    between atoms: _272  and  _274
REMARK  103  A    between atoms: _274  and  _275
REMARK  104  A    between atoms: _277  and  _279
REMARK  105  A    between atoms: _279  and  _280
REMARK  106  A    between atoms: _279  and  _282
REMARK  107  A    between atoms: _282  and  _283
REMARK  108  A    between atoms: _286  and  _288
REMARK  109  A    between atoms: _288  and  _289
REMARK  110  A    between atoms: _288  and  _291
REMARK  111  A    between atoms: _291  and  _292
REMARK  112  A    between atoms: _302  and  _304
REMARK  113  A    between atoms: _304  and  _305
REMARK  114  A    between atoms: _304  and  _307
REMARK  115  A    between atoms: _307  and  _308
REMARK  116  A    between atoms: _308  and  _309
REMARK  117  A    between atoms: _309  and  _310
REMARK  118  A    between atoms: _310  and  _311
REMARK  119  A    between atoms: _316  and  _317
REMARK  120  A    between atoms: _322  and  _324
REMARK  121  A    between atoms: _324  and  _325
REMARK  122  A    between atoms: _324  and  _327
REMARK  123  A    between atoms: _327  and  _328
REMARK  124  A    between atoms: _331  and  _333
REMARK  125  A    between atoms: _333  and  _334
REMARK  126  A    between atoms: _333  and  _336
REMARK  127  A    between atoms: _336  and  _337
REMARK  128  A    between atoms: _342  and  _343
REMARK  129  A    between atoms: _345  and  _347
REMARK  130  A    between atoms: _347  and  _348
REMARK  131  A    between atoms: _347  and  _350
REMARK  132  A    between atoms: _350  and  _351
REMARK  133  A    between atoms: _353  and  _355
REMARK  134  A    between atoms: _355  and  _356
REMARK  135  A    between atoms: _359  and  _361
REMARK  136  A    between atoms: _361  and  _362
REMARK  137  A    between atoms: _361  and  _364
REMARK  138  A    between atoms: _364  and  _365
REMARK  139  A    between atoms: _365  and  _366
REMARK  140  A    between atoms: _368  and  _370
REMARK  141  A    between atoms: _370  and  _371
REMARK  142  A    between atoms: _370  and  _373
REMARK  143  A    between atoms: _373  and  _374
REMARK  144  A    between atoms: _374  and  _375
REMARK  145  A    between atoms: _380  and  _382
REMARK  146  A    between atoms: _382  and  _383
REMARK  147  A    between atoms: _382  and  _385
REMARK  148  A    between atoms: _385  and  _386
REMARK  149  A    between atoms: _389  and  _391
REMARK  150  A    between atoms: _391  and  _392
REMARK  151  A    between atoms: _391  and  _394
REMARK  152  A    between atoms: _394  and  _395
REMARK  153  A    between atoms: _400  and  _402
REMARK  154  A    between atoms: _402  and  _403
REMARK  155  A    between atoms: _402  and  _405
REMARK  156  A    between atoms: _405  and  _406
REMARK  157  A    between atoms: _409  and  _411
REMARK  158  A    between atoms: _411  and  _412
REMARK  159  A    between atoms: _411  and  _414
REMARK  160  A    between atoms: _414  and  _415
REMARK  161  A    between atoms: _415  and  _416
REMARK  162  A    between atoms: _416  and  _417
REMARK  163  A    between atoms: _426  and  _428
REMARK  164  A    between atoms: _428  and  _429
REMARK  165  A    between atoms: _428  and  _431
REMARK  166  A    between atoms: _431  and  _432
REMARK  167  A    between atoms: _437  and  _438
REMARK                            x       y       z     vdW  Elec       q    Type
REMARK                         _______ _______ _______ _____ _____    ______ ____
ROOT
ATOM      1  CG  TYR A   1      -5.927  -7.306  15.798  0.00  0.00    -0.020 A 
ATOM      2  CD2 TYR A   1      -5.787  -8.235  16.828  0.00  0.00    -0.001 A 
ATOM      3  CE2 TYR A   1      -5.772  -9.602  16.570  0.00  0.00    +0.036 A 
ATOM      4  CZ  TYR A   1      -5.897 -10.056  15.261  0.00  0.00    +0.134 A 
ATOM      5  CE1 TYR A   1      -6.030  -9.151  14.218  0.00  0.00    +0.036 A 
ATOM      6  CD1 TYR A   1      -6.044  -7.784  14.490  0.00  0.00    -0.001 A 
ENDROOT
BRANCH   4   7
ATOM      7  OH  TYR A   1      -5.917 -11.415  15.011  0.00  0.00    -0.506 OA
ATOM      8  HH  TYR A   1      -6.011 -11.569  14.038  0.00  0.00    +0.292 HD
ENDBRANCH   4   7
BRANCH   1   9
ATOM      9  CB  TYR A   1      -6.020  -5.827  16.098  0.00  0.00    +0.051 C 
BRANCH   9  10
ATOM     10  CA  TYR A   1      -5.300  -4.924  15.095  0.00  0.00    +0.137 C 
BRANCH  10  11
ATOM     11  N   TYR A   1      -3.852  -5.017  15.260  0.00  0.00    -0.239 NA
ATOM     12  H   TYR A   1      -3.463  -5.243  16.198  0.00  0.00    +0.142 HD
ENDBRANCH  10  11
BRANCH  10  13
ATOM     13  C   TYR A   1      -5.840  -3.508  15.235  0.00  0.00    +0.224 C 
ATOM     14  O   TYR A   1      -6.812  -3.145  14.574  0.00  0.00    -0.287 OA
ENDBRANCH  10  13
ENDBRANCH   9  10
ENDBRANCH   1   9
TORSDOF 5
REMARK  Name = ../refined-set-2016/3wqm/3wqm_pocket.pdb
REMARK  167 active torsions:
REMARK  status: ('A' for Active; 'I' for Inactive)
REMARK    1  A    between atoms: _1  and  _3
REMARK    2  A    between atoms: _3  and  _4
REMARK    3  A    between atoms: _3  and  _6
REMARK    4  A    between atoms: _6  and  _7
REMARK    5  A    between atoms: _13  and  _15
REMARK    6  A    between atoms: _15  and  _16
REMARK    7  A    between atoms: _15  and  _18
REMARK    8  A    between atoms: _18  and  _19
REMARK    9  A    between atoms: _19  and  _21
REMARK   10  A    between atoms: _22  and  _24
REMARK   11  A    between atoms: _24  and  _25
REMARK   12  A    between atoms: _27  and  _29
REMARK   13  A    between atoms: _29  and  _30
REMARK   14  A    between atoms: _29  and  _32
REMARK   15  A    between atoms: _32  and  _33
REMARK   16  A    between atoms: _36  and  _38
REMARK   17  A    between atoms: _38  and  _39
REMARK   18  A    between atoms: _38  and  _41
REMARK   19  A    between atoms: _41  and  _42
REMARK   20  A    between atoms: _42  and  _43
REMARK   21  A    between atoms: _43  and  _44
REMARK   22  A    between atoms: _53  and  _55
REMARK   23  A    between atoms: _55  and  _56
REMARK   24  A    between atoms: _55  and  _58
REMARK   25  A    between atoms: _58  and  _59
REMARK   26  A    between atoms: _59  and  _60
REMARK   27  A    between atoms: _60  and  _61
REMARK   28  A    between atoms: _70  and  _72
REMARK   29  A    between atoms: _72  and  _73
REMARK   30  A    between atoms: _72  and  _75
REMARK   31  A    between atoms: _75  and  _76
REMARK   32  A    between atoms: _86  and  _88
REMARK   33  A    between atoms: _88  and  _89
REMARK   34  A    between atoms: _88  and  _91
REMARK   35  A    between atoms: _91  and  _92
REMARK   36  A    between atoms: _98  and  _100
REMARK   37  A    between atoms: _100  and  _101
REMARK   38  A    between atoms: _100  and  _103
REMARK   39  A    between atoms: _103  and  _104
REMARK   40  A    between atoms: _109  and  _111
REMARK   41  A    between atoms: _111  and  _112
REMARK   42  A    between atoms: _111  and  _114
REMARK   43  A    between atoms: _114  and  _115
REMARK   44  A    between atoms: _118  and  _120
REMARK   45  A    between atoms: _120  and  _121
REMARK   46  A    between atoms: _120  and  _123
REMARK   47  A    between atoms: _123  and  _124
REMARK   48  A    between atoms: _124  and  _125
REMARK   49  A    between atoms: _128  and  _130
REMARK   50  A    between atoms: _130  and  _131
REMARK   51  A    between atoms: _130  and  _133
REMARK   52  A    between atoms: _133  and  _134
REMARK   53  A    between atoms: _139  and  _141
REMARK   54  A    between atoms: _141  and  _142
REMARK   55  A    between atoms: _141  and  _144
REMARK   56  A    between atoms: _144  and  _145
REMARK   57  A    between atoms: _150  and  _151
REMARK   58  A    between atoms: _153  and  _155
REMARK   59  A    between atoms: _155  and  _156
REMARK   60  A    between atoms: _155  and  _158
REMARK   61  A    between atoms: _158  and  _159
REMARK   62  A    between atoms: _162  and  _164
REMARK   63  A    between atoms: _164  and  _165
REMARK   64  A    between atoms: _164  and  _167
REMARK   65  A    between atoms: _167  and  _168
REMARK   66  A    between atoms: _168  and  _169
REMARK   67  A    between atoms: _169  and  _170
REMARK   68  A    between atoms: _179  and  _181
REMARK   69  A    between atoms: _181  and  _182
REMARK   70  A    between atoms: _181  and  _184
REMARK   71  A    between atoms: _184  and  _185
REMARK   72  A    between atoms: _190  and  _191
REMARK   73  A    between atoms: _193  and  _195
REMARK   74  A    between atoms: _195  and  _196
REMARK   75  A    between atoms: _195  and  _198
REMARK   76  A    between atoms: _198  and  _199
REMARK   77  A    between atoms: _199  and  _200
REMARK   78  A    between atoms: _205  and  _207
REMARK   79  A    between atoms: _207  and  _208
REMARK   80  A    between atoms: _207  and  _210
REMARK   81  A    between atoms: _210  and  _211
REMARK   82  A    between atoms: _217  and  _219
REMARK   83  A    between atoms: _219  and  _220
REMARK   84  A    between atoms: _219  and  _222
REMARK   85  A    between atoms: _222  and  _223
REMARK   86  A    between atoms: _223  and  _224
REMARK   87  A    between atoms: _224  and  _225
REMARK   88  A    between atoms: _235  and  _236
REMARK   89  A    between atoms: _241  and  _243
REMARK   90  A    between atoms: _243  and  _244
REMARK   91  A    between atoms: _243  and  _246
REMARK   92  A    between atoms: _246  and  _247
REMARK   93  A    between atoms: _249  and  _251
REMARK   94  A    between atoms: _251  and  _252
REMARK   95  A    between atoms: _251  and  _254
REMARK   96  A    between atoms: _254  and  _255
REMARK   97  A    between atoms: _260  and  _261
REMARK   98  A    between atoms: _263  and  _265
REMARK   99  A    between atoms: _265  and  _266
REMARK  100  A    between atoms: _265  and  _268
REMARK  101  A    between atoms: _268  and  _269
REMARK  102  A    between atoms: _272  and  _274
REMARK  103  A    between atoms: _274  and  _275
REMARK  104  A    between atoms: _277  and  _279
REMARK  105  A    between atoms: _279  and  _280
REMARK  106  A    between atoms: _279  and  _282
REMARK  107  A    between atoms: _282  and  _283
REMARK  108  A    between atoms: _286  and  _288
REMARK  109  A    between atoms: _288  and  _289
REMARK  110  A    between atoms: _288  and  _291
REMARK  111  A    between atoms: _291  and  _292
REMARK  112  A    between atoms: _302  and  _304
REMARK  113  A    between atoms: _304  and  _305
REMARK  114  A    between atoms: _304  and  _307
REMARK  115  A    between atoms: _307  and  _308
REMARK  116  A    between atoms: _308  and  _309
REMARK  117  A    between atoms: _309  and  _310
REMARK  118  A    between atoms: _310  and  _311
REMARK  119  A    between atoms: _316  and  _317
REMARK  120  A    between atoms: _322  and  _324
REMARK  121  A    between atoms: _324  and  _325
REMARK  122  A    between atoms: _324  and  _327
REMARK  123  A    between atoms: _327  and  _328
REMARK  124  A    between atoms: _331  and  _333
REMARK  125  A    between atoms: _333  and  _334
REMARK  126  A    between atoms: _333  and  _336
REMARK  127  A    between atoms: _336  and  _337
REMARK  128  A    between atoms: _342  and  _343
REMARK  129  A    between atoms: _345  and  _347
REMARK  130  A    between atoms: _347  and  _348
REMARK  131  A    between atoms: _347  and  _350
REMARK  132  A    between atoms: _350  and  _351
REMARK  133  A    between atoms: _353  and  _355
REMARK  134  A    between atoms: _355  and  _356
REMARK  135  A    between atoms: _359  and  _361
REMARK  136  A    between atoms: _361  and  _362
REMARK  137  A    between atoms: _361  and  _364
REMARK  138  A    between atoms: _364  and  _365
REMARK  139  A    between atoms: _365  and  _366
REMARK  140  A    between atoms: _368  and  _370
REMARK  141  A    between atoms: _370  and  _371
REMARK  142  A    between atoms: _370  and  _373
REMARK  143  A    between atoms: _373  and  _374
REMARK  144  A    between atoms: _374  and  _375
REMARK  145  A    between atoms: _380  and  _382
REMARK  146  A    between atoms: _382  and  _383
REMARK  147  A    between atoms: _382  and  _385
REMARK  148  A    between atoms: _385  and  _386
REMARK  149  A    between atoms: _389  and  _391
REMARK  150  A    between atoms: _391  and  _392
REMARK  151  A    between atoms: _391  and  _394
REMARK  152  A    between atoms: _394  and  _395
REMARK  153  A    between atoms: _400  and  _402
REMARK  154  A    between atoms: _402  and  _403
REMARK  155  A    between atoms: _402  and  _405
REMARK  156  A    between atoms: _405  and  _406
REMARK  157  A    between atoms: _409  and  _411
REMARK  158  A    between atoms: _411  and  _412
REMARK  159  A    between atoms: _411  and  _414
REMARK  160  A    between atoms: _414  and  _415
REMARK  161  A    between atoms: _415  and  _416
REMARK  162  A    between atoms: _416  and  _417
REMARK  163  A    between atoms: _426  and  _428
REMARK  164  A    between atoms: _428  and  _429
REMARK  165  A    between atoms: _428  and  _431
REMARK  166  A    between atoms: _431  and  _432
REMARK  167  A    between atoms: _437  and  _438
REMARK                            x       y       z     vdW  Elec       q    Type
REMARK                         _______ _______ _______ _____ _____    ______ ____
ROOT
ATOM      1  O   HOH     1      -6.647 -15.183  11.387  0.00  0.00    +0.000 OA
ENDROOT
TORSDOF 0
REMARK  Name = ../refined-set-2016/3wqm/3wqm_pocket.pdb
REMARK  167 active torsions:
REMARK  status: ('A' for Active; 'I' for Inactive)
REMARK    1  A    between atoms: _1  and  _3
REMARK    2  A    between atoms: _3  and  _4
REMARK    3  A    between atoms: _3  and  _6
REMARK    4  A    between atoms: _6  and  _7
REMARK    5  A    between atoms: _13  and  _15
REMARK    6  A    between atoms: _15  and  _16
REMARK    7  A    between atoms: _15  and  _18
REMARK    8  A    between atoms: _18  and  _19
REMARK    9  A    between atoms: _19  and  _21
REMARK   10  A    between atoms: _22  and  _24
REMARK   11  A    between atoms: _24  and  _25
REMARK   12  A    between atoms: _27  and  _29
REMARK   13  A    between atoms: _29  and  _30
REMARK   14  A    between atoms: _29  and  _32
REMARK   15  A    between atoms: _32  and  _33
REMARK   16  A    between atoms: _36  and  _38
REMARK   17  A    between atoms: _38  and  _39
REMARK   18  A    between atoms: _38  and  _41
REMARK   19  A    between atoms: _41  and  _42
REMARK   20  A    between atoms: _42  and  _43
REMARK   21  A    between atoms: _43  and  _44
REMARK   22  A    between atoms: _53  and  _55
REMARK   23  A    between atoms: _55  and  _56
REMARK   24  A    between atoms: _55  and  _58
REMARK   25  A    between atoms: _58  and  _59
REMARK   26  A    between atoms: _59  and  _60
REMARK   27  A    between atoms: _60  and  _61
REMARK   28  A    between atoms: _70  and  _72
REMARK   29  A    between atoms: _72  and  _73
REMARK   30  A    between atoms: _72  and  _75
REMARK   31  A    between atoms: _75  and  _76
REMARK   32  A    between atoms: _86  and  _88
REMARK   33  A    between atoms: _88  and  _89
REMARK   34  A    between atoms: _88  and  _91
REMARK   35  A    between atoms: _91  and  _92
REMARK   36  A    between atoms: _98  and  _100
REMARK   37  A    between atoms: _100  and  _101
REMARK   38  A    between atoms: _100  and  _103
REMARK   39  A    between atoms: _103  and  _104
REMARK   40  A    between atoms: _109  and  _111
REMARK   41  A    between atoms: _111  and  _112
REMARK   42  A    between atoms: _111  and  _114
REMARK   43  A    between atoms: _114  and  _115
REMARK   44  A    between atoms: _118  and  _120
REMARK   45  A    between atoms: _120  and  _121
REMARK   46  A    between atoms: _120  and  _123
REMARK   47  A    between atoms: _123  and  _124
REMARK   48  A    between atoms: _124  and  _125
REMARK   49  A    between atoms: _128  and  _130
REMARK   50  A    between atoms: _130  and  _131
REMARK   51  A    between atoms: _130  and  _133
REMARK   52  A    between atoms: _133  and  _134
REMARK   53  A    between atoms: _139  and  _141
REMARK   54  A    between atoms: _141  and  _142
REMARK   55  A    between atoms: _141  and  _144
REMARK   56  A    between atoms: _144  and  _145
REMARK   57  A    between atoms: _150  and  _151
REMARK   58  A    between atoms: _153  and  _155
REMARK   59  A    between atoms: _155  and  _156
REMARK   60  A    between atoms: _155  and  _158
REMARK   61  A    between atoms: _158  and  _159
REMARK   62  A    between atoms: _162  and  _164
REMARK   63  A    between atoms: _164  and  _165
REMARK   64  A    between atoms: _164  and  _167
REMARK   65  A    between atoms: _167  and  _168
REMARK   66  A    between atoms: _168  and  _169
REMARK   67  A    between atoms: _169  and  _170
REMARK   68  A    between atoms: _179  and  _181
REMARK   69  A    between atoms: _181  and  _182
REMARK   70  A    between atoms: _181  and  _184
REMARK   71  A    between atoms: _184  and  _185
REMARK   72  A    between atoms: _190  and  _191
REMARK   73  A    between atoms: _193  and  _195
REMARK   74  A    between atoms: _195  and  _196
REMARK   75  A    between atoms: _195  and  _198
REMARK   76  A    between atoms: _198  and  _199
REMARK   77  A    between atoms: _199  and  _200
REMARK   78  A    between atoms: _205  and  _207
REMARK   79  A    between atoms: _207  and  _208
REMARK   80  A    between atoms: _207  and  _210
REMARK   81  A    between atoms: _210  and  _211
REMARK   82  A    between atoms: _217  and  _219
REMARK   83  A    between atoms: _219  and  _220
REMARK   84  A    between atoms: _219  and  _222
REMARK   85  A    between atoms: _222  and  _223
REMARK   86  A    between atoms: _223  and  _224
REMARK   87  A    between atoms: _224  and  _225
REMARK   88  A    between atoms: _235  and  _236
REMARK   89  A    between atoms: _241  and  _243
REMARK   90  A    between atoms: _243  and  _244
REMARK   91  A    between atoms: _243  and  _246
REMARK   92  A    between atoms: _246  and  _247
REMARK   93  A    between atoms: _249  and  _251
REMARK   94  A    between atoms: _251  and  _252
REMARK   95  A    between atoms: _251  and  _254
REMARK   96  A    between atoms: _254  and  _255
REMARK   97  A    between atoms: _260  and  _261
REMARK   98  A    between atoms: _263  and  _265
REMARK   99  A    between atoms: _265  and  _266
REMARK  100  A    between atoms: _265  and  _268
REMARK  101  A    between atoms: _268  and  _269
REMARK  102  A    between atoms: _272  and  _274
REMARK  103  A    between atoms: _274  and  _275
REMARK  104  A    between atoms: _277  and  _279
REMARK  105  A    between atoms: _279  and  _280
REMARK  106  A    between atoms: _279  and  _282
REMARK  107  A    between atoms: _282  and  _283
REMARK  108  A    between atoms: _286  and  _288
REMARK  109  A    between atoms: _288  and  _289
REMARK  110  A    between atoms: _288  and  _291
REMARK  111  A    between atoms: _291  and  _292
REMARK  112  A    between atoms: _302  and  _304
REMARK  113  A    between atoms: _304  and  _305
REMARK  114  A    between atoms: _304  and  _307
REMARK  115  A    between atoms: _307  and  _308
REMARK  116  A    between atoms: _308  and  _309
REMARK  117  A    between atoms: _309  and  _310
REMARK  118  A    between atoms: _310  and  _311
REMARK  119  A    between atoms: _316  and  _317
REMARK  120  A    between atoms: _322  and  _324
REMARK  121  A    between atoms: _324  and  _325
REMARK  122  A    between atoms: _324  and  _327
REMARK  123  A    between atoms: _327  and  _328
REMARK  124  A    between atoms: _331  and  _333
REMARK  125  A    between atoms: _333  and  _334
REMARK  126  A    between atoms: _333  and  _336
REMARK  127  A    between atoms: _336  and  _337
REMARK  128  A    between atoms: _342  and  _343
REMARK  129  A    between atoms: _345  and  _347
REMARK  130  A    between atoms: _347  and  _348
REMARK  131  A    between atoms: _347  and  _350
REMARK  132  A    between atoms: _350  and  _351
REMARK  133  A    between atoms: _353  and  _355
REMARK  134  A    between atoms: _355  and  _356
REMARK  135  A    between atoms: _359  and  _361
REMARK  136  A    between atoms: _361  and  _362
REMARK  137  A    between atoms: _361  and  _364
REMARK  138  A    between atoms: _364  and  _365
REMARK  139  A    between atoms: _365  and  _366
REMARK  140  A    between atoms: _368  and  _370
REMARK  141  A    between atoms: _370  and  _371
REMARK  142  A    between atoms: _370  and  _373
REMARK  143  A    between atoms: _373  and  _374
REMARK  144  A    between atoms: _374  and  _375
REMARK  145  A    between atoms: _380  and  _382
REMARK  146  A    between atoms: _382  and  _383
REMARK  147  A    between atoms: _382  and  _385
REMARK  148  A    between atoms: _385  and  _386
REMARK  149  A    between atoms: _389  and  _391
REMARK  150  A    between atoms: _391  and  _392
REMARK  151  A    between atoms: _391  and  _394
REMARK  152  A    between atoms: _394  and  _395
REMARK  153  A    between atoms: _400  and  _402
REMARK  154  A    between atoms: _402  and  _403
REMARK  155  A    between atoms: _402  and  _405
REMARK  156  A    between atoms: _405  and  _406
REMARK  157  A    between atoms: _409  and  _411
REMARK  158  A    between atoms: _411  and  _412
REMARK  159  A    between atoms: _411  and  _414
REMARK  160  A    between atoms: _414  and  _415
REMARK  161  A    between atoms: _415  and  _416
REMARK  162  A    between atoms: _416  and  _417
REMARK  163  A    between atoms: _426  and  _428
REMARK  164  A    between atoms: _428  and  _429
REMARK  165  A    between atoms: _428  and  _431
REMARK  166  A    between atoms: _431  and  _432
REMARK  167  A    between atoms: _437  and  _438
REMARK                            x       y       z     vdW  Elec       q    Type
REMARK                         _______ _______ _______ _____ _____    ______ ____
ROOT
ATOM      1  O   HOH     1      -5.288 -25.006  26.885  0.00  0.00    +0.000 OA
ENDROOT
TORSDOF 0
REMARK  Name = ../refined-set-2016/3wqm/3wqm_pocket.pdb
REMARK  167 active torsions:
REMARK  status: ('A' for Active; 'I' for Inactive)
REMARK    1  A    between atoms: _1  and  _3
REMARK    2  A    between atoms: _3  and  _4
REMARK    3  A    between atoms: _3  and  _6
REMARK    4  A    between atoms: _6  and  _7
REMARK    5  A    between atoms: _13  and  _15
REMARK    6  A    between atoms: _15  and  _16
REMARK    7  A    between atoms: _15  and  _18
REMARK    8  A    between atoms: _18  and  _19
REMARK    9  A    between atoms: _19  and  _21
REMARK   10  A    between atoms: _22  and  _24
REMARK   11  A    between atoms: _24  and  _25
REMARK   12  A    between atoms: _27  and  _29
REMARK   13  A    between atoms: _29  and  _30
REMARK   14  A    between atoms: _29  and  _32
REMARK   15  A    between atoms: _32  and  _33
REMARK   16  A    between atoms: _36  and  _38
REMARK   17  A    between atoms: _38  and  _39
REMARK   18  A    between atoms: _38  and  _41
REMARK   19  A    between atoms: _41  and  _42
REMARK   20  A    between atoms: _42  and  _43
REMARK   21  A    between atoms: _43  and  _44
REMARK   22  A    between atoms: _53  and  _55
REMARK   23  A    between atoms: _55  and  _56
REMARK   24  A    between atoms: _55  and  _58
REMARK   25  A    between atoms: _58  and  _59
REMARK   26  A    between atoms: _59  and  _60
REMARK   27  A    between atoms: _60  and  _61
REMARK   28  A    between atoms: _70  and  _72
REMARK   29  A    between atoms: _72  and  _73
REMARK   30  A    between atoms: _72  and  _75
REMARK   31  A    between atoms: _75  and  _76
REMARK   32  A    between atoms: _86  and  _88
REMARK   33  A    between atoms: _88  and  _89
REMARK   34  A    between atoms: _88  and  _91
REMARK   35  A    between atoms: _91  and  _92
REMARK   36  A    between atoms: _98  and  _100
REMARK   37  A    between atoms: _100  and  _101
REMARK   38  A    between atoms: _100  and  _103
REMARK   39  A    between atoms: _103  and  _104
REMARK   40  A    between atoms: _109  and  _111
REMARK   41  A    between atoms: _111  and  _112
REMARK   42  A    between atoms: _111  and  _114
REMARK   43  A    between atoms: _114  and  _115
REMARK   44  A    between atoms: _118  and  _120
REMARK   45  A    between atoms: _120  and  _121
REMARK   46  A    between atoms: _120  and  _123
REMARK   47  A    between atoms: _123  and  _124
REMARK   48  A    between atoms: _124  and  _125
REMARK   49  A    between atoms: _128  and  _130
REMARK   50  A    between atoms: _130  and  _131
REMARK   51  A    between atoms: _130  and  _133
REMARK   52  A    between atoms: _133  and  _134
REMARK   53  A    between atoms: _139  and  _141
REMARK   54  A    between atoms: _141  and  _142
REMARK   55  A    between atoms: _141  and  _144
REMARK   56  A    between atoms: _144  and  _145
REMARK   57  A    between atoms: _150  and  _151
REMARK   58  A    between atoms: _153  and  _155
REMARK   59  A    between atoms: _155  and  _156
REMARK   60  A    between atoms: _155  and  _158
REMARK   61  A    between atoms: _158  and  _159
REMARK   62  A    between atoms: _162  and  _164
REMARK   63  A    between atoms: _164  and  _165
REMARK   64  A    between atoms: _164  and  _167
REMARK   65  A    between atoms: _167  and  _168
REMARK   66  A    between atoms: _168  and  _169
REMARK   67  A    between atoms: _169  and  _170
REMARK   68  A    between atoms: _179  and  _181
REMARK   69  A    between atoms: _181  and  _182
REMARK   70  A    between atoms: _181  and  _184
REMARK   71  A    between atoms: _184  and  _185
REMARK   72  A    between atoms: _190  and  _191
REMARK   73  A    between atoms: _193  and  _195
REMARK   74  A    between atoms: _195  and  _196
REMARK   75  A    between atoms: _195  and  _198
REMARK   76  A    between atoms: _198  and  _199
REMARK   77  A    between atoms: _199  and  _200
REMARK   78  A    between atoms: _205  and  _207
REMARK   79  A    between atoms: _207  and  _208
REMARK   80  A    between atoms: _207  and  _210
REMARK   81  A    between atoms: _210  and  _211
REMARK   82  A    between atoms: _217  and  _219
REMARK   83  A    between atoms: _219  and  _220
REMARK   84  A    between atoms: _219  and  _222
REMARK   85  A    between atoms: _222  and  _223
REMARK   86  A    between atoms: _223  and  _224
REMARK   87  A    between atoms: _224  and  _225
REMARK   88  A    between atoms: _235  and  _236
REMARK   89  A    between atoms: _241  and  _243
REMARK   90  A    between atoms: _243  and  _244
REMARK   91  A    between atoms: _243  and  _246
REMARK   92  A    between atoms: _246  and  _247
REMARK   93  A    between atoms: _249  and  _251
REMARK   94  A    between atoms: _251  and  _252
REMARK   95  A    between atoms: _251  and  _254
REMARK   96  A    between atoms: _254  and  _255
REMARK   97  A    between atoms: _260  and  _261
REMARK   98  A    between atoms: _263  and  _265
REMARK   99  A    between atoms: _265  and  _266
REMARK  100  A    between atoms: _265  and  _268
REMARK  101  A    between atoms: _268  and  _269
REMARK  102  A    between atoms: _272  and  _274
REMARK  103  A    between atoms: _274  and  _275
REMARK  104  A    between atoms: _277  and  _279
REMARK  105  A    between atoms: _279  and  _280
REMARK  106  A    between atoms: _279  and  _282
REMARK  107  A    between atoms: _282  and  _283
REMARK  108  A    between atoms: _286  and  _288
REMARK  109  A    between atoms: _288  and  _289
REMARK  110  A    between atoms: _288  and  _291
REMARK  111  A    between atoms: _291  and  _292
REMARK  112  A    between atoms: _302  and  _304
REMARK  113  A    between atoms: _304  and  _305
REMARK  114  A    between atoms: _304  and  _307
REMARK  115  A    between atoms: _307  and  _308
REMARK  116  A    between atoms: _308  and  _309
REMARK  117  A    between atoms: _309  and  _310
REMARK  118  A    between atoms: _310  and  _311
REMARK  119  A    between atoms: _316  and  _317
REMARK  120  A    between atoms: _322  and  _324
REMARK  121  A    between atoms: _324  and  _325
REMARK  122  A    between atoms: _324  and  _327
REMARK  123  A    between atoms: _327  and  _328
REMARK  124  A    between atoms: _331  and  _333
REMARK  125  A    between atoms: _333  and  _334
REMARK  126  A    between atoms: _333  and  _336
REMARK  127  A    between atoms: _336  and  _337
REMARK  128  A    between atoms: _342  and  _343
REMARK  129  A    between atoms: _345  and  _347
REMARK  130  A    between atoms: _347  and  _348
REMARK  131  A    between atoms: _347  and  _350
REMARK  132  A    between atoms: _350  and  _351
REMARK  133  A    between atoms: _353  and  _355
REMARK  134  A    between atoms: _355  and  _356
REMARK  135  A    between atoms: _359  and  _361
REMARK  136  A    between atoms: _361  and  _362
REMARK  137  A    between atoms: _361  and  _364
REMARK  138  A    between atoms: _364  and  _365
REMARK  139  A    between atoms: _365  and  _366
REMARK  140  A    between atoms: _368  and  _370
REMARK  141  A    between atoms: _370  and  _371
REMARK  142  A    between atoms: _370  and  _373
REMARK  143  A    between atoms: _373  and  _374
REMARK  144  A    between atoms: _374  and  _375
REMARK  145  A    between atoms: _380  and  _382
REMARK  146  A    between atoms: _382  and  _383
REMARK  147  A    between atoms: _382  and  _385
REMARK  148  A    between atoms: _385  and  _386
REMARK  149  A    between atoms: _389  and  _391
REMARK  150  A    between atoms: _391  and  _392
REMARK  151  A    between atoms: _391  and  _394
REMARK  152  A    between atoms: _394  and  _395
REMARK  153  A    between atoms: _400  and  _402
REMARK  154  A    between atoms: _402  and  _403
REMARK  155  A    between atoms: _402  and  _405
REMARK  156  A    between atoms: _405  and  _406
REMARK  157  A    between atoms: _409  and  _411
REMARK  158  A    between atoms: _411  and  _412
REMARK  159  A    between atoms: _411  and  _414
REMARK  160  A    between atoms: _414  and  _415
REMARK  161  A    between atoms: _415  and  _416
REMARK  162  A    between atoms: _416  and  _417
REMARK  163  A    between atoms: _426  and  _428
REMARK  164  A    between atoms: _428  and  _429
REMARK  165  A    between atoms: _428  and  _431
REMARK  166  A    between atoms: _431  and  _432
REMARK  167  A    between atoms: _437  and  _438
REMARK                            x       y       z     vdW  Elec       q    Type
REMARK                         _______ _______ _______ _____ _____    ______ ____
ROOT
ATOM      1  O   HOH     1     -10.899 -16.748   9.879  0.00  0.00    +0.000 OA
ENDROOT
TORSDOF 0
REMARK  Name = ../refined-set-2016/3wqm/3wqm_pocket.pdb
REMARK  167 active torsions:
REMARK  status: ('A' for Active; 'I' for Inactive)
REMARK    1  A    between atoms: _1  and  _3
REMARK    2  A    between atoms: _3  and  _4
REMARK    3  A    between atoms: _3  and  _6
REMARK    4  A    between atoms: _6  and  _7
REMARK    5  A    between atoms: _13  and  _15
REMARK    6  A    between atoms: _15  and  _16
REMARK    7  A    between atoms: _15  and  _18
REMARK    8  A    between atoms: _18  and  _19
REMARK    9  A    between atoms: _19  and  _21
REMARK   10  A    between atoms: _22  and  _24
REMARK   11  A    between atoms: _24  and  _25
REMARK   12  A    between atoms: _27  and  _29
REMARK   13  A    between atoms: _29  and  _30
REMARK   14  A    between atoms: _29  and  _32
REMARK   15  A    between atoms: _32  and  _33
REMARK   16  A    between atoms: _36  and  _38
REMARK   17  A    between atoms: _38  and  _39
REMARK   18  A    between atoms: _38  and  _41
REMARK   19  A    between atoms: _41  and  _42
REMARK   20  A    between atoms: _42  and  _43
REMARK   21  A    between atoms: _43  and  _44
REMARK   22  A    between atoms: _53  and  _55
REMARK   23  A    between atoms: _55  and  _56
REMARK   24  A    between atoms: _55  and  _58
REMARK   25  A    between atoms: _58  and  _59
REMARK   26  A    between atoms: _59  and  _60
REMARK   27  A    between atoms: _60  and  _61
REMARK   28  A    between atoms: _70  and  _72
REMARK   29  A    between atoms: _72  and  _73
REMARK   30  A    between atoms: _72  and  _75
REMARK   31  A    between atoms: _75  and  _76
REMARK   32  A    between atoms: _86  and  _88
REMARK   33  A    between atoms: _88  and  _89
REMARK   34  A    between atoms: _88  and  _91
REMARK   35  A    between atoms: _91  and  _92
REMARK   36  A    between atoms: _98  and  _100
REMARK   37  A    between atoms: _100  and  _101
REMARK   38  A    between atoms: _100  and  _103
REMARK   39  A    between atoms: _103  and  _104
REMARK   40  A    between atoms: _109  and  _111
REMARK   41  A    between atoms: _111  and  _112
REMARK   42  A    between atoms: _111  and  _114
REMARK   43  A    between atoms: _114  and  _115
REMARK   44  A    between atoms: _118  and  _120
REMARK   45  A    between atoms: _120  and  _121
REMARK   46  A    between atoms: _120  and  _123
REMARK   47  A    between atoms: _123  and  _124
REMARK   48  A    between atoms: _124  and  _125
REMARK   49  A    between atoms: _128  and  _130
REMARK   50  A    between atoms: _130  and  _131
REMARK   51  A    between atoms: _130  and  _133
REMARK   52  A    between atoms: _133  and  _134
REMARK   53  A    between atoms: _139  and  _141
REMARK   54  A    between atoms: _141  and  _142
REMARK   55  A    between atoms: _141  and  _144
REMARK   56  A    between atoms: _144  and  _145
REMARK   57  A    between atoms: _150  and  _151
REMARK   58  A    between atoms: _153  and  _155
REMARK   59  A    between atoms: _155  and  _156
REMARK   60  A    between atoms: _155  and  _158
REMARK   61  A    between atoms: _158  and  _159
REMARK   62  A    between atoms: _162  and  _164
REMARK   63  A    between atoms: _164  and  _165
REMARK   64  A    between atoms: _164  and  _167
REMARK   65  A    between atoms: _167  and  _168
REMARK   66  A    between atoms: _168  and  _169
REMARK   67  A    between atoms: _169  and  _170
REMARK   68  A    between atoms: _179  and  _181
REMARK   69  A    between atoms: _181  and  _182
REMARK   70  A    between atoms: _181  and  _184
REMARK   71  A    between atoms: _184  and  _185
REMARK   72  A    between atoms: _190  and  _191
REMARK   73  A    between atoms: _193  and  _195
REMARK   74  A    between atoms: _195  and  _196
REMARK   75  A    between atoms: _195  and  _198
REMARK   76  A    between atoms: _198  and  _199
REMARK   77  A    between atoms: _199  and  _200
REMARK   78  A    between atoms: _205  and  _207
REMARK   79  A    between atoms: _207  and  _208
REMARK   80  A    between atoms: _207  and  _210
REMARK   81  A    between atoms: _210  and  _211
REMARK   82  A    between atoms: _217  and  _219
REMARK   83  A    between atoms: _219  and  _220
REMARK   84  A    between atoms: _219  and  _222
REMARK   85  A    between atoms: _222  and  _223
REMARK   86  A    between atoms: _223  and  _224
REMARK   87  A    between atoms: _224  and  _225
REMARK   88  A    between atoms: _235  and  _236
REMARK   89  A    between atoms: _241  and  _243
REMARK   90  A    between atoms: _243  and  _244
REMARK   91  A    between atoms: _243  and  _246
REMARK   92  A    between atoms: _246  and  _247
REMARK   93  A    between atoms: _249  and  _251
REMARK   94  A    between atoms: _251  and  _252
REMARK   95  A    between atoms: _251  and  _254
REMARK   96  A    between atoms: _254  and  _255
REMARK   97  A    between atoms: _260  and  _261
REMARK   98  A    between atoms: _263  and  _265
REMARK   99  A    between atoms: _265  and  _266
REMARK  100  A    between atoms: _265  and  _268
REMARK  101  A    between atoms: _268  and  _269
REMARK  102  A    between atoms: _272  and  _274
REMARK  103  A    between atoms: _274  and  _275
REMARK  104  A    between atoms: _277  and  _279
REMARK  105  A    between atoms: _279  and  _280
REMARK  106  A    between atoms: _279  and  _282
REMARK  107  A    between atoms: _282  and  _283
REMARK  108  A    between atoms: _286  and  _288
REMARK  109  A    between atoms: _288  and  _289
REMARK  110  A    between atoms: _288  and  _291
REMARK  111  A    between atoms: _291  and  _292
REMARK  112  A    between atoms: _302  and  _304
REMARK  113  A    between atoms: _304  and  _305
REMARK  114  A    between atoms: _304  and  _307
REMARK  115  A    between atoms: _307  and  _308
REMARK  116  A    between atoms: _308  and  _309
REMARK  117  A    between atoms: _309  and  _310
REMARK  118  A    between atoms: _310  and  _311
REMARK  119  A    between atoms: _316  and  _317
REMARK  120  A    between atoms: _322  and  _324
REMARK  121  A    between atoms: _324  and  _325
REMARK  122  A    between atoms: _324  and  _327
REMARK  123  A    between atoms: _327  and  _328
REMARK  124  A    between atoms: _331  and  _333
REMARK  125  A    between atoms: _333  and  _334
REMARK  126  A    between atoms: _333  and  _336
REMARK  127  A    between atoms: _336  and  _337
REMARK  128  A    between atoms: _342  and  _343
REMARK  129  A    between atoms: _345  and  _347
REMARK  130  A    between atoms: _347  and  _348
REMARK  131  A    between atoms: _347  and  _350
REMARK  132  A    between atoms: _350  and  _351
REMARK  133  A    between atoms: _353  and  _355
REMARK  134  A    between atoms: _355  and  _356
REMARK  135  A    between atoms: _359  and  _361
REMARK  136  A    between atoms: _361  and  _362
REMARK  137  A    between atoms: _361  and  _364
REMARK  138  A    between atoms: _364  and  _365
REMARK  139  A    between atoms: _365  and  _366
REMARK  140  A    between atoms: _368  and  _370
REMARK  141  A    between atoms: _370  and  _371
REMARK  142  A    between atoms: _370  and  _373
REMARK  143  A    between atoms: _373  and  _374
REMARK  144  A    between atoms: _374  and  _375
REMARK  145  A    between atoms: _380  and  _382
REMARK  146  A    between atoms: _382  and  _383
REMARK  147  A    between atoms: _382  and  _385
REMARK  148  A    between atoms: _385  and  _386
REMARK  149  A    between atoms: _389  and  _391
REMARK  150  A    between atoms: _391  and  _392
REMARK  151  A    between atoms: _391  and  _394
REMARK  152  A    between atoms: _394  and  _395
REMARK  153  A    between atoms: _400  and  _402
REMARK  154  A    between atoms: _402  and  _403
REMARK  155  A    between atoms: _402  and  _405
REMARK  156  A    between atoms: _405  and  _406
REMARK  157  A    between atoms: _409  and  _411
REMARK  158  A    between atoms: _411  and  _412
REMARK  159  A    between atoms: _411  and  _414
REMARK  160  A    between atoms: _414  and  _415
REMARK  161  A    between atoms: _415  and  _416
REMARK  162  A    between atoms: _416  and  _417
REMARK  163  A    between atoms: _426  and  _428
REMARK  164  A    between atoms: _428  and  _429
REMARK  165  A    between atoms: _428  and  _431
REMARK  166  A    between atoms: _431  and  _432
REMARK  167  A    between atoms: _437  and  _438
REMARK                            x       y       z     vdW  Elec       q    Type
REMARK                         _______ _______ _______ _____ _____    ______ ____
ROOT
ATOM      1  O   HOH     1     -10.124 -17.002  12.073  0.00  0.00    +0.000 OA
ENDROOT
TORSDOF 0
REMARK  Name = ../refined-set-2016/3wqm/3wqm_pocket.pdb
REMARK  167 active torsions:
REMARK  status: ('A' for Active; 'I' for Inactive)
REMARK    1  A    between atoms: _1  and  _3
REMARK    2  A    between atoms: _3  and  _4
REMARK    3  A    between atoms: _3  and  _6
REMARK    4  A    between atoms: _6  and  _7
REMARK    5  A    between atoms: _13  and  _15
REMARK    6  A    between atoms: _15  and  _16
REMARK    7  A    between atoms: _15  and  _18
REMARK    8  A    between atoms: _18  and  _19
REMARK    9  A    between atoms: _19  and  _21
REMARK   10  A    between atoms: _22  and  _24
REMARK   11  A    between atoms: _24  and  _25
REMARK   12  A    between atoms: _27  and  _29
REMARK   13  A    between atoms: _29  and  _30
REMARK   14  A    between atoms: _29  and  _32
REMARK   15  A    between atoms: _32  and  _33
REMARK   16  A    between atoms: _36  and  _38
REMARK   17  A    between atoms: _38  and  _39
REMARK   18  A    between atoms: _38  and  _41
REMARK   19  A    between atoms: _41  and  _42
REMARK   20  A    between atoms: _42  and  _43
REMARK   21  A    between atoms: _43  and  _44
REMARK   22  A    between atoms: _53  and  _55
REMARK   23  A    between atoms: _55  and  _56
REMARK   24  A    between atoms: _55  and  _58
REMARK   25  A    between atoms: _58  and  _59
REMARK   26  A    between atoms: _59  and  _60
REMARK   27  A    between atoms: _60  and  _61
REMARK   28  A    between atoms: _70  and  _72
REMARK   29  A    between atoms: _72  and  _73
REMARK   30  A    between atoms: _72  and  _75
REMARK   31  A    between atoms: _75  and  _76
REMARK   32  A    between atoms: _86  and  _88
REMARK   33  A    between atoms: _88  and  _89
REMARK   34  A    between atoms: _88  and  _91
REMARK   35  A    between atoms: _91  and  _92
REMARK   36  A    between atoms: _98  and  _100
REMARK   37  A    between atoms: _100  and  _101
REMARK   38  A    between atoms: _100  and  _103
REMARK   39  A    between atoms: _103  and  _104
REMARK   40  A    between atoms: _109  and  _111
REMARK   41  A    between atoms: _111  and  _112
REMARK   42  A    between atoms: _111  and  _114
REMARK   43  A    between atoms: _114  and  _115
REMARK   44  A    between atoms: _118  and  _120
REMARK   45  A    between atoms: _120  and  _121
REMARK   46  A    between atoms: _120  and  _123
REMARK   47  A    between atoms: _123  and  _124
REMARK   48  A    between atoms: _124  and  _125
REMARK   49  A    between atoms: _128  and  _130
REMARK   50  A    between atoms: _130  and  _131
REMARK   51  A    between atoms: _130  and  _133
REMARK   52  A    between atoms: _133  and  _134
REMARK   53  A    between atoms: _139  and  _141
REMARK   54  A    between atoms: _141  and  _142
REMARK   55  A    between atoms: _141  and  _144
REMARK   56  A    between atoms: _144  and  _145
REMARK   57  A    between atoms: _150  and  _151
REMARK   58  A    between atoms: _153  and  _155
REMARK   59  A    between atoms: _155  and  _156
REMARK   60  A    between atoms: _155  and  _158
REMARK   61  A    between atoms: _158  and  _159
REMARK   62  A    between atoms: _162  and  _164
REMARK   63  A    between atoms: _164  and  _165
REMARK   64  A    between atoms: _164  and  _167
REMARK   65  A    between atoms: _167  and  _168
REMARK   66  A    between atoms: _168  and  _169
REMARK   67  A    between atoms: _169  and  _170
REMARK   68  A    between atoms: _179  and  _181
REMARK   69  A    between atoms: _181  and  _182
REMARK   70  A    between atoms: _181  and  _184
REMARK   71  A    between atoms: _184  and  _185
REMARK   72  A    between atoms: _190  and  _191
REMARK   73  A    between atoms: _193  and  _195
REMARK   74  A    between atoms: _195  and  _196
REMARK   75  A    between atoms: _195  and  _198
REMARK   76  A    between atoms: _198  and  _199
REMARK   77  A    between atoms: _199  and  _200
REMARK   78  A    between atoms: _205  and  _207
REMARK   79  A    between atoms: _207  and  _208
REMARK   80  A    between atoms: _207  and  _210
REMARK   81  A    between atoms: _210  and  _211
REMARK   82  A    between atoms: _217  and  _219
REMARK   83  A    between atoms: _219  and  _220
REMARK   84  A    between atoms: _219  and  _222
REMARK   85  A    between atoms: _222  and  _223
REMARK   86  A    between atoms: _223  and  _224
REMARK   87  A    between atoms: _224  and  _225
REMARK   88  A    between atoms: _235  and  _236
REMARK   89  A    between atoms: _241  and  _243
REMARK   90  A    between atoms: _243  and  _244
REMARK   91  A    between atoms: _243  and  _246
REMARK   92  A    between atoms: _246  and  _247
REMARK   93  A    between atoms: _249  and  _251
REMARK   94  A    between atoms: _251  and  _252
REMARK   95  A    between atoms: _251  and  _254
REMARK   96  A    between atoms: _254  and  _255
REMARK   97  A    between atoms: _260  and  _261
REMARK   98  A    between atoms: _263  and  _265
REMARK   99  A    between atoms: _265  and  _266
REMARK  100  A    between atoms: _265  and  _268
REMARK  101  A    between atoms: _268  and  _269
REMARK  102  A    between atoms: _272  and  _274
REMARK  103  A    between atoms: _274  and  _275
REMARK  104  A    between atoms: _277  and  _279
REMARK  105  A    between atoms: _279  and  _280
REMARK  106  A    between atoms: _279  and  _282
REMARK  107  A    between atoms: _282  and  _283
REMARK  108  A    between atoms: _286  and  _288
REMARK  109  A    between atoms: _288  and  _289
REMARK  110  A    between atoms: _288  and  _291
REMARK  111  A    between atoms: _291  and  _292
REMARK  112  A    between atoms: _302  and  _304
REMARK  113  A    between atoms: _304  and  _305
REMARK  114  A    between atoms: _304  and  _307
REMARK  115  A    between atoms: _307  and  _308
REMARK  116  A    between atoms: _308  and  _309
REMARK  117  A    between atoms: _309  and  _310
REMARK  118  A    between atoms: _310  and  _311
REMARK  119  A    between atoms: _316  and  _317
REMARK  120  A    between atoms: _322  and  _324
REMARK  121  A    between atoms: _324  and  _325
REMARK  122  A    between atoms: _324  and  _327
REMARK  123  A    between atoms: _327  and  _328
REMARK  124  A    between atoms: _331  and  _333
REMARK  125  A    between atoms: _333  and  _334
REMARK  126  A    between atoms: _333  and  _336
REMARK  127  A    between atoms: _336  and  _337
REMARK  128  A    between atoms: _342  and  _343
REMARK  129  A    between atoms: _345  and  _347
REMARK  130  A    between atoms: _347  and  _348
REMARK  131  A    between atoms: _347  and  _350
REMARK  132  A    between atoms: _350  and  _351
REMARK  133  A    between atoms: _353  and  _355
REMARK  134  A    between atoms: _355  and  _356
REMARK  135  A    between atoms: _359  and  _361
REMARK  136  A    between atoms: _361  and  _362
REMARK  137  A    between atoms: _361  and  _364
REMARK  138  A    between atoms: _364  and  _365
REMARK  139  A    between atoms: _365  and  _366
REMARK  140  A    between atoms: _368  and  _370
REMARK  141  A    between atoms: _370  and  _371
REMARK  142  A    between atoms: _370  and  _373
REMARK  143  A    between atoms: _373  and  _374
REMARK  144  A    between atoms: _374  and  _375
REMARK  145  A    between atoms: _380  and  _382
REMARK  146  A    between atoms: _382  and  _383
REMARK  147  A    between atoms: _382  and  _385
REMARK  148  A    between atoms: _385  and  _386
REMARK  149  A    between atoms: _389  and  _391
REMARK  150  A    between atoms: _391  and  _392
REMARK  151  A    between atoms: _391  and  _394
REMARK  152  A    between atoms: _394  and  _395
REMARK  153  A    between atoms: _400  and  _402
REMARK  154  A    between atoms: _402  and  _403
REMARK  155  A    between atoms: _402  and  _405
REMARK  156  A    between atoms: _405  and  _406
REMARK  157  A    between atoms: _409  and  _411
REMARK  158  A    between atoms: _411  and  _412
REMARK  159  A    between atoms: _411  and  _414
REMARK  160  A    between atoms: _414  and  _415
REMARK  161  A    between atoms: _415  and  _416
REMARK  162  A    between atoms: _416  and  _417
REMARK  163  A    between atoms: _426  and  _428
REMARK  164  A    between atoms: _428  and  _429
REMARK  165  A    between atoms: _428  and  _431
REMARK  166  A    between atoms: _431  and  _432
REMARK  167  A    between atoms: _437  and  _438
REMARK                            x       y       z     vdW  Elec       q    Type
REMARK                         _______ _______ _______ _____ _____    ______ ____
ROOT
ATOM      1  O   HOH     1     -18.685 -17.659  19.007  0.00  0.00    +0.000 OA
ENDROOT
TORSDOF 0
REMARK  Name = ../refined-set-2016/3wqm/3wqm_pocket.pdb
REMARK  167 active torsions:
REMARK  status: ('A' for Active; 'I' for Inactive)
REMARK    1  A    between atoms: _1  and  _3
REMARK    2  A    between atoms: _3  and  _4
REMARK    3  A    between atoms: _3  and  _6
REMARK    4  A    between atoms: _6  and  _7
REMARK    5  A    between atoms: _13  and  _15
REMARK    6  A    between atoms: _15  and  _16
REMARK    7  A    between atoms: _15  and  _18
REMARK    8  A    between atoms: _18  and  _19
REMARK    9  A    between atoms: _19  and  _21
REMARK   10  A    between atoms: _22  and  _24
REMARK   11  A    between atoms: _24  and  _25
REMARK   12  A    between atoms: _27  and  _29
REMARK   13  A    between atoms: _29  and  _30
REMARK   14  A    between atoms: _29  and  _32
REMARK   15  A    between atoms: _32  and  _33
REMARK   16  A    between atoms: _36  and  _38
REMARK   17  A    between atoms: _38  and  _39
REMARK   18  A    between atoms: _38  and  _41
REMARK   19  A    between atoms: _41  and  _42
REMARK   20  A    between atoms: _42  and  _43
REMARK   21  A    between atoms: _43  and  _44
REMARK   22  A    between atoms: _53  and  _55
REMARK   23  A    between atoms: _55  and  _56
REMARK   24  A    between atoms: _55  and  _58
REMARK   25  A    between atoms: _58  and  _59
REMARK   26  A    between atoms: _59  and  _60
REMARK   27  A    between atoms: _60  and  _61
REMARK   28  A    between atoms: _70  and  _72
REMARK   29  A    between atoms: _72  and  _73
REMARK   30  A    between atoms: _72  and  _75
REMARK   31  A    between atoms: _75  and  _76
REMARK   32  A    between atoms: _86  and  _88
REMARK   33  A    between atoms: _88  and  _89
REMARK   34  A    between atoms: _88  and  _91
REMARK   35  A    between atoms: _91  and  _92
REMARK   36  A    between atoms: _98  and  _100
REMARK   37  A    between atoms: _100  and  _101
REMARK   38  A    between atoms: _100  and  _103
REMARK   39  A    between atoms: _103  and  _104
REMARK   40  A    between atoms: _109  and  _111
REMARK   41  A    between atoms: _111  and  _112
REMARK   42  A    between atoms: _111  and  _114
REMARK   43  A    between atoms: _114  and  _115
REMARK   44  A    between atoms: _118  and  _120
REMARK   45  A    between atoms: _120  and  _121
REMARK   46  A    between atoms: _120  and  _123
REMARK   47  A    between atoms: _123  and  _124
REMARK   48  A    between atoms: _124  and  _125
REMARK   49  A    between atoms: _128  and  _130
REMARK   50  A    between atoms: _130  and  _131
REMARK   51  A    between atoms: _130  and  _133
REMARK   52  A    between atoms: _133  and  _134
REMARK   53  A    between atoms: _139  and  _141
REMARK   54  A    between atoms: _141  and  _142
REMARK   55  A    between atoms: _141  and  _144
REMARK   56  A    between atoms: _144  and  _145
REMARK   57  A    between atoms: _150  and  _151
REMARK   58  A    between atoms: _153  and  _155
REMARK   59  A    between atoms: _155  and  _156
REMARK   60  A    between atoms: _155  and  _158
REMARK   61  A    between atoms: _158  and  _159
REMARK   62  A    between atoms: _162  and  _164
REMARK   63  A    between atoms: _164  and  _165
REMARK   64  A    between atoms: _164  and  _167
REMARK   65  A    between atoms: _167  and  _168
REMARK   66  A    between atoms: _168  and  _169
REMARK   67  A    between atoms: _169  and  _170
REMARK   68  A    between atoms: _179  and  _181
REMARK   69  A    between atoms: _181  and  _182
REMARK   70  A    between atoms: _181  and  _184
REMARK   71  A    between atoms: _184  and  _185
REMARK   72  A    between atoms: _190  and  _191
REMARK   73  A    between atoms: _193  and  _195
REMARK   74  A    between atoms: _195  and  _196
REMARK   75  A    between atoms: _195  and  _198
REMARK   76  A    between atoms: _198  and  _199
REMARK   77  A    between atoms: _199  and  _200
REMARK   78  A    between atoms: _205  and  _207
REMARK   79  A    between atoms: _207  and  _208
REMARK   80  A    between atoms: _207  and  _210
REMARK   81  A    between atoms: _210  and  _211
REMARK   82  A    between atoms: _217  and  _219
REMARK   83  A    between atoms: _219  and  _220
REMARK   84  A    between atoms: _219  and  _222
REMARK   85  A    between atoms: _222  and  _223
REMARK   86  A    between atoms: _223  and  _224
REMARK   87  A    between atoms: _224  and  _225
REMARK   88  A    between atoms: _235  and  _236
REMARK   89  A    between atoms: _241  and  _243
REMARK   90  A    between atoms: _243  and  _244
REMARK   91  A    between atoms: _243  and  _246
REMARK   92  A    between atoms: _246  and  _247
REMARK   93  A    between atoms: _249  and  _251
REMARK   94  A    between atoms: _251  and  _252
REMARK   95  A    between atoms: _251  and  _254
REMARK   96  A    between atoms: _254  and  _255
REMARK   97  A    between atoms: _260  and  _261
REMARK   98  A    between atoms: _263  and  _265
REMARK   99  A    between atoms: _265  and  _266
REMARK  100  A    between atoms: _265  and  _268
REMARK  101  A    between atoms: _268  and  _269
REMARK  102  A    between atoms: _272  and  _274
REMARK  103  A    between atoms: _274  and  _275
REMARK  104  A    between atoms: _277  and  _279
REMARK  105  A    between atoms: _279  and  _280
REMARK  106  A    between atoms: _279  and  _282
REMARK  107  A    between atoms: _282  and  _283
REMARK  108  A    between atoms: _286  and  _288
REMARK  109  A    between atoms: _288  and  _289
REMARK  110  A    between atoms: _288  and  _291
REMARK  111  A    between atoms: _291  and  _292
REMARK  112  A    between atoms: _302  and  _304
REMARK  113  A    between atoms: _304  and  _305
REMARK  114  A    between atoms: _304  and  _307
REMARK  115  A    between atoms: _307  and  _308
REMARK  116  A    between atoms: _308  and  _309
REMARK  117  A    between atoms: _309  and  _310
REMARK  118  A    between atoms: _310  and  _311
REMARK  119  A    between atoms: _316  and  _317
REMARK  120  A    between atoms: _322  and  _324
REMARK  121  A    between atoms: _324  and  _325
REMARK  122  A    between atoms: _324  and  _327
REMARK  123  A    between atoms: _327  and  _328
REMARK  124  A    between atoms: _331  and  _333
REMARK  125  A    between atoms: _333  and  _334
REMARK  126  A    between atoms: _333  and  _336
REMARK  127  A    between atoms: _336  and  _337
REMARK  128  A    between atoms: _342  and  _343
REMARK  129  A    between atoms: _345  and  _347
REMARK  130  A    between atoms: _347  and  _348
REMARK  131  A    between atoms: _347  and  _350
REMARK  132  A    between atoms: _350  and  _351
REMARK  133  A    between atoms: _353  and  _355
REMARK  134  A    between atoms: _355  and  _356
REMARK  135  A    between atoms: _359  and  _361
REMARK  136  A    between atoms: _361  and  _362
REMARK  137  A    between atoms: _361  and  _364
REMARK  138  A    between atoms: _364  and  _365
REMARK  139  A    between atoms: _365  and  _366
REMARK  140  A    between atoms: _368  and  _370
REMARK  141  A    between atoms: _370  and  _371
REMARK  142  A    between atoms: _370  and  _373
REMARK  143  A    between atoms: _373  and  _374
REMARK  144  A    between atoms: _374  and  _375
REMARK  145  A    between atoms: _380  and  _382
REMARK  146  A    between atoms: _382  and  _383
REMARK  147  A    between atoms: _382  and  _385
REMARK  148  A    between atoms: _385  and  _386
REMARK  149  A    between atoms: _389  and  _391
REMARK  150  A    between atoms: _391  and  _392
REMARK  151  A    between atoms: _391  and  _394
REMARK  152  A    between atoms: _394  and  _395
REMARK  153  A    between atoms: _400  and  _402
REMARK  154  A    between atoms: _402  and  _403
REMARK  155  A    between atoms: _402  and  _405
REMARK  156  A    between atoms: _405  and  _406
REMARK  157  A    between atoms: _409  and  _411
REMARK  158  A    between atoms: _411  and  _412
REMARK  159  A    between atoms: _411  and  _414
REMARK  160  A    between atoms: _414  and  _415
REMARK  161  A    between atoms: _415  and  _416
REMARK  162  A    between atoms: _416  and  _417
REMARK  163  A    between atoms: _426  and  _428
REMARK  164  A    between atoms: _428  and  _429
REMARK  165  A    between atoms: _428  and  _431
REMARK  166  A    between atoms: _431  and  _432
REMARK  167  A    between atoms: _437  and  _438
REMARK                            x       y       z     vdW  Elec       q    Type
REMARK                         _______ _______ _______ _____ _____    ______ ____
ROOT
ATOM      1  O   HOH     1     -10.449 -19.698  15.110  0.00  0.00    +0.000 OA
ENDROOT
TORSDOF 0
REMARK  Name = ../refined-set-2016/3wqm/3wqm_pocket.pdb
REMARK  167 active torsions:
REMARK  status: ('A' for Active; 'I' for Inactive)
REMARK    1  A    between atoms: _1  and  _3
REMARK    2  A    between atoms: _3  and  _4
REMARK    3  A    between atoms: _3  and  _6
REMARK    4  A    between atoms: _6  and  _7
REMARK    5  A    between atoms: _13  and  _15
REMARK    6  A    between atoms: _15  and  _16
REMARK    7  A    between atoms: _15  and  _18
REMARK    8  A    between atoms: _18  and  _19
REMARK    9  A    between atoms: _19  and  _21
REMARK   10  A    between atoms: _22  and  _24
REMARK   11  A    between atoms: _24  and  _25
REMARK   12  A    between atoms: _27  and  _29
REMARK   13  A    between atoms: _29  and  _30
REMARK   14  A    between atoms: _29  and  _32
REMARK   15  A    between atoms: _32  and  _33
REMARK   16  A    between atoms: _36  and  _38
REMARK   17  A    between atoms: _38  and  _39
REMARK   18  A    between atoms: _38  and  _41
REMARK   19  A    between atoms: _41  and  _42
REMARK   20  A    between atoms: _42  and  _43
REMARK   21  A    between atoms: _43  and  _44
REMARK   22  A    between atoms: _53  and  _55
REMARK   23  A    between atoms: _55  and  _56
REMARK   24  A    between atoms: _55  and  _58
REMARK   25  A    between atoms: _58  and  _59
REMARK   26  A    between atoms: _59  and  _60
REMARK   27  A    between atoms: _60  and  _61
REMARK   28  A    between atoms: _70  and  _72
REMARK   29  A    between atoms: _72  and  _73
REMARK   30  A    between atoms: _72  and  _75
REMARK   31  A    between atoms: _75  and  _76
REMARK   32  A    between atoms: _86  and  _88
REMARK   33  A    between atoms: _88  and  _89
REMARK   34  A    between atoms: _88  and  _91
REMARK   35  A    between atoms: _91  and  _92
REMARK   36  A    between atoms: _98  and  _100
REMARK   37  A    between atoms: _100  and  _101
REMARK   38  A    between atoms: _100  and  _103
REMARK   39  A    between atoms: _103  and  _104
REMARK   40  A    between atoms: _109  and  _111
REMARK   41  A    between atoms: _111  and  _112
REMARK   42  A    between atoms: _111  and  _114
REMARK   43  A    between atoms: _114  and  _115
REMARK   44  A    between atoms: _118  and  _120
REMARK   45  A    between atoms: _120  and  _121
REMARK   46  A    between atoms: _120  and  _123
REMARK   47  A    between atoms: _123  and  _124
REMARK   48  A    between atoms: _124  and  _125
REMARK   49  A    between atoms: _128  and  _130
REMARK   50  A    between atoms: _130  and  _131
REMARK   51  A    between atoms: _130  and  _133
REMARK   52  A    between atoms: _133  and  _134
REMARK   53  A    between atoms: _139  and  _141
REMARK   54  A    between atoms: _141  and  _142
REMARK   55  A    between atoms: _141  and  _144
REMARK   56  A    between atoms: _144  and  _145
REMARK   57  A    between atoms: _150  and  _151
REMARK   58  A    between atoms: _153  and  _155
REMARK   59  A    between atoms: _155  and  _156
REMARK   60  A    between atoms: _155  and  _158
REMARK   61  A    between atoms: _158  and  _159
REMARK   62  A    between atoms: _162  and  _164
REMARK   63  A    between atoms: _164  and  _165
REMARK   64  A    between atoms: _164  and  _167
REMARK   65  A    between atoms: _167  and  _168
REMARK   66  A    between atoms: _168  and  _169
REMARK   67  A    between atoms: _169  and  _170
REMARK   68  A    between atoms: _179  and  _181
REMARK   69  A    between atoms: _181  and  _182
REMARK   70  A    between atoms: _181  and  _184
REMARK   71  A    between atoms: _184  and  _185
REMARK   72  A    between atoms: _190  and  _191
REMARK   73  A    between atoms: _193  and  _195
REMARK   74  A    between atoms: _195  and  _196
REMARK   75  A    between atoms: _195  and  _198
REMARK   76  A    between atoms: _198  and  _199
REMARK   77  A    between atoms: _199  and  _200
REMARK   78  A    between atoms: _205  and  _207
REMARK   79  A    between atoms: _207  and  _208
REMARK   80  A    between atoms: _207  and  _210
REMARK   81  A    between atoms: _210  and  _211
REMARK   82  A    between atoms: _217  and  _219
REMARK   83  A    between atoms: _219  and  _220
REMARK   84  A    between atoms: _219  and  _222
REMARK   85  A    between atoms: _222  and  _223
REMARK   86  A    between atoms: _223  and  _224
REMARK   87  A    between atoms: _224  and  _225
REMARK   88  A    between atoms: _235  and  _236
REMARK   89  A    between atoms: _241  and  _243
REMARK   90  A    between atoms: _243  and  _244
REMARK   91  A    between atoms: _243  and  _246
REMARK   92  A    between atoms: _246  and  _247
REMARK   93  A    between atoms: _249  and  _251
REMARK   94  A    between atoms: _251  and  _252
REMARK   95  A    between atoms: _251  and  _254
REMARK   96  A    between atoms: _254  and  _255
REMARK   97  A    between atoms: _260  and  _261
REMARK   98  A    between atoms: _263  and  _265
REMARK   99  A    between atoms: _265  and  _266
REMARK  100  A    between atoms: _265  and  _268
REMARK  101  A    between atoms: _268  and  _269
REMARK  102  A    between atoms: _272  and  _274
REMARK  103  A    between atoms: _274  and  _275
REMARK  104  A    between atoms: _277  and  _279
REMARK  105  A    between atoms: _279  and  _280
REMARK  106  A    between atoms: _279  and  _282
REMARK  107  A    between atoms: _282  and  _283
REMARK  108  A    between atoms: _286  and  _288
REMARK  109  A    between atoms: _288  and  _289
REMARK  110  A    between atoms: _288  and  _291
REMARK  111  A    between atoms: _291  and  _292
REMARK  112  A    between atoms: _302  and  _304
REMARK  113  A    between atoms: _304  and  _305
REMARK  114  A    between atoms: _304  and  _307
REMARK  115  A    between atoms: _307  and  _308
REMARK  116  A    between atoms: _308  and  _309
REMARK  117  A    between atoms: _309  and  _310
REMARK  118  A    between atoms: _310  and  _311
REMARK  119  A    between atoms: _316  and  _317
REMARK  120  A    between atoms: _322  and  _324
REMARK  121  A    between atoms: _324  and  _325
REMARK  122  A    between atoms: _324  and  _327
REMARK  123  A    between atoms: _327  and  _328
REMARK  124  A    between atoms: _331  and  _333
REMARK  125  A    between atoms: _333  and  _334
REMARK  126  A    between atoms: _333  and  _336
REMARK  127  A    between atoms: _336  and  _337
REMARK  128  A    between atoms: _342  and  _343
REMARK  129  A    between atoms: _345  and  _347
REMARK  130  A    between atoms: _347  and  _348
REMARK  131  A    between atoms: _347  and  _350
REMARK  132  A    between atoms: _350  and  _351
REMARK  133  A    between atoms: _353  and  _355
REMARK  134  A    between atoms: _355  and  _356
REMARK  135  A    between atoms: _359  and  _361
REMARK  136  A    between atoms: _361  and  _362
REMARK  137  A    between atoms: _361  and  _364
REMARK  138  A    between atoms: _364  and  _365
REMARK  139  A    between atoms: _365  and  _366
REMARK  140  A    between atoms: _368  and  _370
REMARK  141  A    between atoms: _370  and  _371
REMARK  142  A    between atoms: _370  and  _373
REMARK  143  A    between atoms: _373  and  _374
REMARK  144  A    between atoms: _374  and  _375
REMARK  145  A    between atoms: _380  and  _382
REMARK  146  A    between atoms: _382  and  _383
REMARK  147  A    between atoms: _382  and  _385
REMARK  148  A    between atoms: _385  and  _386
REMARK  149  A    between atoms: _389  and  _391
REMARK  150  A    between atoms: _391  and  _392
REMARK  151  A    between atoms: _391  and  _394
REMARK  152  A    between atoms: _394  and  _395
REMARK  153  A    between atoms: _400  and  _402
REMARK  154  A    between atoms: _402  and  _403
REMARK  155  A    between atoms: _402  and  _405
REMARK  156  A    between atoms: _405  and  _406
REMARK  157  A    between atoms: _409  and  _411
REMARK  158  A    between atoms: _411  and  _412
REMARK  159  A    between atoms: _411  and  _414
REMARK  160  A    between atoms: _414  and  _415
REMARK  161  A    between atoms: _415  and  _416
REMARK  162  A    between atoms: _416  and  _417
REMARK  163  A    between atoms: _426  and  _428
REMARK  164  A    between atoms: _428  and  _429
REMARK  165  A    between atoms: _428  and  _431
REMARK  166  A    between atoms: _431  and  _432
REMARK  167  A    between atoms: _437  and  _438
REMARK                            x       y       z     vdW  Elec       q    Type
REMARK                         _______ _______ _______ _____ _____    ______ ____
ROOT
ATOM      1  O   HOH     1     -17.966 -18.716  14.438  0.00  0.00    +0.000 OA
ENDROOT
TORSDOF 0
REMARK  Name = ../refined-set-2016/3wqm/3wqm_pocket.pdb
REMARK  167 active torsions:
REMARK  status: ('A' for Active; 'I' for Inactive)
REMARK    1  A    between atoms: _1  and  _3
REMARK    2  A    between atoms: _3  and  _4
REMARK    3  A    between atoms: _3  and  _6
REMARK    4  A    between atoms: _6  and  _7
REMARK    5  A    between atoms: _13  and  _15
REMARK    6  A    between atoms: _15  and  _16
REMARK    7  A    between atoms: _15  and  _18
REMARK    8  A    between atoms: _18  and  _19
REMARK    9  A    between atoms: _19  and  _21
REMARK   10  A    between atoms: _22  and  _24
REMARK   11  A    between atoms: _24  and  _25
REMARK   12  A    between atoms: _27  and  _29
REMARK   13  A    between atoms: _29  and  _30
REMARK   14  A    between atoms: _29  and  _32
REMARK   15  A    between atoms: _32  and  _33
REMARK   16  A    between atoms: _36  and  _38
REMARK   17  A    between atoms: _38  and  _39
REMARK   18  A    between atoms: _38  and  _41
REMARK   19  A    between atoms: _41  and  _42
REMARK   20  A    between atoms: _42  and  _43
REMARK   21  A    between atoms: _43  and  _44
REMARK   22  A    between atoms: _53  and  _55
REMARK   23  A    between atoms: _55  and  _56
REMARK   24  A    between atoms: _55  and  _58
REMARK   25  A    between atoms: _58  and  _59
REMARK   26  A    between atoms: _59  and  _60
REMARK   27  A    between atoms: _60  and  _61
REMARK   28  A    between atoms: _70  and  _72
REMARK   29  A    between atoms: _72  and  _73
REMARK   30  A    between atoms: _72  and  _75
REMARK   31  A    between atoms: _75  and  _76
REMARK   32  A    between atoms: _86  and  _88
REMARK   33  A    between atoms: _88  and  _89
REMARK   34  A    between atoms: _88  and  _91
REMARK   35  A    between atoms: _91  and  _92
REMARK   36  A    between atoms: _98  and  _100
REMARK   37  A    between atoms: _100  and  _101
REMARK   38  A    between atoms: _100  and  _103
REMARK   39  A    between atoms: _103  and  _104
REMARK   40  A    between atoms: _109  and  _111
REMARK   41  A    between atoms: _111  and  _112
REMARK   42  A    between atoms: _111  and  _114
REMARK   43  A    between atoms: _114  and  _115
REMARK   44  A    between atoms: _118  and  _120
REMARK   45  A    between atoms: _120  and  _121
REMARK   46  A    between atoms: _120  and  _123
REMARK   47  A    between atoms: _123  and  _124
REMARK   48  A    between atoms: _124  and  _125
REMARK   49  A    between atoms: _128  and  _130
REMARK   50  A    between atoms: _130  and  _131
REMARK   51  A    between atoms: _130  and  _133
REMARK   52  A    between atoms: _133  and  _134
REMARK   53  A    between atoms: _139  and  _141
REMARK   54  A    between atoms: _141  and  _142
REMARK   55  A    between atoms: _141  and  _144
REMARK   56  A    between atoms: _144  and  _145
REMARK   57  A    between atoms: _150  and  _151
REMARK   58  A    between atoms: _153  and  _155
REMARK   59  A    between atoms: _155  and  _156
REMARK   60  A    between atoms: _155  and  _158
REMARK   61  A    between atoms: _158  and  _159
REMARK   62  A    between atoms: _162  and  _164
REMARK   63  A    between atoms: _164  and  _165
REMARK   64  A    between atoms: _164  and  _167
REMARK   65  A    between atoms: _167  and  _168
REMARK   66  A    between atoms: _168  and  _169
REMARK   67  A    between atoms: _169  and  _170
REMARK   68  A    between atoms: _179  and  _181
REMARK   69  A    between atoms: _181  and  _182
REMARK   70  A    between atoms: _181  and  _184
REMARK   71  A    between atoms: _184  and  _185
REMARK   72  A    between atoms: _190  and  _191
REMARK   73  A    between atoms: _193  and  _195
REMARK   74  A    between atoms: _195  and  _196
REMARK   75  A    between atoms: _195  and  _198
REMARK   76  A    between atoms: _198  and  _199
REMARK   77  A    between atoms: _199  and  _200
REMARK   78  A    between atoms: _205  and  _207
REMARK   79  A    between atoms: _207  and  _208
REMARK   80  A    between atoms: _207  and  _210
REMARK   81  A    between atoms: _210  and  _211
REMARK   82  A    between atoms: _217  and  _219
REMARK   83  A    between atoms: _219  and  _220
REMARK   84  A    between atoms: _219  and  _222
REMARK   85  A    between atoms: _222  and  _223
REMARK   86  A    between atoms: _223  and  _224
REMARK   87  A    between atoms: _224  and  _225
REMARK   88  A    between atoms: _235  and  _236
REMARK   89  A    between atoms: _241  and  _243
REMARK   90  A    between atoms: _243  and  _244
REMARK   91  A    between atoms: _243  and  _246
REMARK   92  A    between atoms: _246  and  _247
REMARK   93  A    between atoms: _249  and  _251
REMARK   94  A    between atoms: _251  and  _252
REMARK   95  A    between atoms: _251  and  _254
REMARK   96  A    between atoms: _254  and  _255
REMARK   97  A    between atoms: _260  and  _261
REMARK   98  A    between atoms: _263  and  _265
REMARK   99  A    between atoms: _265  and  _266
REMARK  100  A    between atoms: _265  and  _268
REMARK  101  A    between atoms: _268  and  _269
REMARK  102  A    between atoms: _272  and  _274
REMARK  103  A    between atoms: _274  and  _275
REMARK  104  A    between atoms: _277  and  _279
REMARK  105  A    between atoms: _279  and  _280
REMARK  106  A    between atoms: _279  and  _282
REMARK  107  A    between atoms: _282  and  _283
REMARK  108  A    between atoms: _286  and  _288
REMARK  109  A    between atoms: _288  and  _289
REMARK  110  A    between atoms: _288  and  _291
REMARK  111  A    between atoms: _291  and  _292
REMARK  112  A    between atoms: _302  and  _304
REMARK  113  A    between atoms: _304  and  _305
REMARK  114  A    between atoms: _304  and  _307
REMARK  115  A    between atoms: _307  and  _308
REMARK  116  A    between atoms: _308  and  _309
REMARK  117  A    between atoms: _309  and  _310
REMARK  118  A    between atoms: _310  and  _311
REMARK  119  A    between atoms: _316  and  _317
REMARK  120  A    between atoms: _322  and  _324
REMARK  121  A    between atoms: _324  and  _325
REMARK  122  A    between atoms: _324  and  _327
REMARK  123  A    between atoms: _327  and  _328
REMARK  124  A    between atoms: _331  and  _333
REMARK  125  A    between atoms: _333  and  _334
REMARK  126  A    between atoms: _333  and  _336
REMARK  127  A    between atoms: _336  and  _337
REMARK  128  A    between atoms: _342  and  _343
REMARK  129  A    between atoms: _345  and  _347
REMARK  130  A    between atoms: _347  and  _348
REMARK  131  A    between atoms: _347  and  _350
REMARK  132  A    between atoms: _350  and  _351
REMARK  133  A    between atoms: _353  and  _355
REMARK  134  A    between atoms: _355  and  _356
REMARK  135  A    between atoms: _359  and  _361
REMARK  136  A    between atoms: _361  and  _362
REMARK  137  A    between atoms: _361  and  _364
REMARK  138  A    between atoms: _364  and  _365
REMARK  139  A    between atoms: _365  and  _366
REMARK  140  A    between atoms: _368  and  _370
REMARK  141  A    between atoms: _370  and  _371
REMARK  142  A    between atoms: _370  and  _373
REMARK  143  A    between atoms: _373  and  _374
REMARK  144  A    between atoms: _374  and  _375
REMARK  145  A    between atoms: _380  and  _382
REMARK  146  A    between atoms: _382  and  _383
REMARK  147  A    between atoms: _382  and  _385
REMARK  148  A    between atoms: _385  and  _386
REMARK  149  A    between atoms: _389  and  _391
REMARK  150  A    between atoms: _391  and  _392
REMARK  151  A    between atoms: _391  and  _394
REMARK  152  A    between atoms: _394  and  _395
REMARK  153  A    between atoms: _400  and  _402
REMARK  154  A    between atoms: _402  and  _403
REMARK  155  A    between atoms: _402  and  _405
REMARK  156  A    between atoms: _405  and  _406
REMARK  157  A    between atoms: _409  and  _411
REMARK  158  A    between atoms: _411  and  _412
REMARK  159  A    between atoms: _411  and  _414
REMARK  160  A    between atoms: _414  and  _415
REMARK  161  A    between atoms: _415  and  _416
REMARK  162  A    between atoms: _416  and  _417
REMARK  163  A    between atoms: _426  and  _428
REMARK  164  A    between atoms: _428  and  _429
REMARK  165  A    between atoms: _428  and  _431
REMARK  166  A    between atoms: _431  and  _432
REMARK  167  A    between atoms: _437  and  _438
REMARK                            x       y       z     vdW  Elec       q    Type
REMARK                         _______ _______ _______ _____ _____    ______ ____
ROOT
ATOM      1  O   HOH     1      -4.557 -17.944  11.621  0.00  0.00    +0.000 OA
ENDROOT
TORSDOF 0
REMARK  Name = ../refined-set-2016/3wqm/3wqm_pocket.pdb
REMARK  167 active torsions:
REMARK  status: ('A' for Active; 'I' for Inactive)
REMARK    1  A    between atoms: _1  and  _3
REMARK    2  A    between atoms: _3  and  _4
REMARK    3  A    between atoms: _3  and  _6
REMARK    4  A    between atoms: _6  and  _7
REMARK    5  A    between atoms: _13  and  _15
REMARK    6  A    between atoms: _15  and  _16
REMARK    7  A    between atoms: _15  and  _18
REMARK    8  A    between atoms: _18  and  _19
REMARK    9  A    between atoms: _19  and  _21
REMARK   10  A    between atoms: _22  and  _24
REMARK   11  A    between atoms: _24  and  _25
REMARK   12  A    between atoms: _27  and  _29
REMARK   13  A    between atoms: _29  and  _30
REMARK   14  A    between atoms: _29  and  _32
REMARK   15  A    between atoms: _32  and  _33
REMARK   16  A    between atoms: _36  and  _38
REMARK   17  A    between atoms: _38  and  _39
REMARK   18  A    between atoms: _38  and  _41
REMARK   19  A    between atoms: _41  and  _42
REMARK   20  A    between atoms: _42  and  _43
REMARK   21  A    between atoms: _43  and  _44
REMARK   22  A    between atoms: _53  and  _55
REMARK   23  A    between atoms: _55  and  _56
REMARK   24  A    between atoms: _55  and  _58
REMARK   25  A    between atoms: _58  and  _59
REMARK   26  A    between atoms: _59  and  _60
REMARK   27  A    between atoms: _60  and  _61
REMARK   28  A    between atoms: _70  and  _72
REMARK   29  A    between atoms: _72  and  _73
REMARK   30  A    between atoms: _72  and  _75
REMARK   31  A    between atoms: _75  and  _76
REMARK   32  A    between atoms: _86  and  _88
REMARK   33  A    between atoms: _88  and  _89
REMARK   34  A    between atoms: _88  and  _91
REMARK   35  A    between atoms: _91  and  _92
REMARK   36  A    between atoms: _98  and  _100
REMARK   37  A    between atoms: _100  and  _101
REMARK   38  A    between atoms: _100  and  _103
REMARK   39  A    between atoms: _103  and  _104
REMARK   40  A    between atoms: _109  and  _111
REMARK   41  A    between atoms: _111  and  _112
REMARK   42  A    between atoms: _111  and  _114
REMARK   43  A    between atoms: _114  and  _115
REMARK   44  A    between atoms: _118  and  _120
REMARK   45  A    between atoms: _120  and  _121
REMARK   46  A    between atoms: _120  and  _123
REMARK   47  A    between atoms: _123  and  _124
REMARK   48  A    between atoms: _124  and  _125
REMARK   49  A    between atoms: _128  and  _130
REMARK   50  A    between atoms: _130  and  _131
REMARK   51  A    between atoms: _130  and  _133
REMARK   52  A    between atoms: _133  and  _134
REMARK   53  A    between atoms: _139  and  _141
REMARK   54  A    between atoms: _141  and  _142
REMARK   55  A    between atoms: _141  and  _144
REMARK   56  A    between atoms: _144  and  _145
REMARK   57  A    between atoms: _150  and  _151
REMARK   58  A    between atoms: _153  and  _155
REMARK   59  A    between atoms: _155  and  _156
REMARK   60  A    between atoms: _155  and  _158
REMARK   61  A    between atoms: _158  and  _159
REMARK   62  A    between atoms: _162  and  _164
REMARK   63  A    between atoms: _164  and  _165
REMARK   64  A    between atoms: _164  and  _167
REMARK   65  A    between atoms: _167  and  _168
REMARK   66  A    between atoms: _168  and  _169
REMARK   67  A    between atoms: _169  and  _170
REMARK   68  A    between atoms: _179  and  _181
REMARK   69  A    between atoms: _181  and  _182
REMARK   70  A    between atoms: _181  and  _184
REMARK   71  A    between atoms: _184  and  _185
REMARK   72  A    between atoms: _190  and  _191
REMARK   73  A    between atoms: _193  and  _195
REMARK   74  A    between atoms: _195  and  _196
REMARK   75  A    between atoms: _195  and  _198
REMARK   76  A    between atoms: _198  and  _199
REMARK   77  A    between atoms: _199  and  _200
REMARK   78  A    between atoms: _205  and  _207
REMARK   79  A    between atoms: _207  and  _208
REMARK   80  A    between atoms: _207  and  _210
REMARK   81  A    between atoms: _210  and  _211
REMARK   82  A    between atoms: _217  and  _219
REMARK   83  A    between atoms: _219  and  _220
REMARK   84  A    between atoms: _219  and  _222
REMARK   85  A    between atoms: _222  and  _223
REMARK   86  A    between atoms: _223  and  _224
REMARK   87  A    between atoms: _224  and  _225
REMARK   88  A    between atoms: _235  and  _236
REMARK   89  A    between atoms: _241  and  _243
REMARK   90  A    between atoms: _243  and  _244
REMARK   91  A    between atoms: _243  and  _246
REMARK   92  A    between atoms: _246  and  _247
REMARK   93  A    between atoms: _249  and  _251
REMARK   94  A    between atoms: _251  and  _252
REMARK   95  A    between atoms: _251  and  _254
REMARK   96  A    between atoms: _254  and  _255
REMARK   97  A    between atoms: _260  and  _261
REMARK   98  A    between atoms: _263  and  _265
REMARK   99  A    between atoms: _265  and  _266
REMARK  100  A    between atoms: _265  and  _268
REMARK  101  A    between atoms: _268  and  _269
REMARK  102  A    between atoms: _272  and  _274
REMARK  103  A    between atoms: _274  and  _275
REMARK  104  A    between atoms: _277  and  _279
REMARK  105  A    between atoms: _279  and  _280
REMARK  106  A    between atoms: _279  and  _282
REMARK  107  A    between atoms: _282  and  _283
REMARK  108  A    between atoms: _286  and  _288
REMARK  109  A    between atoms: _288  and  _289
REMARK  110  A    between atoms: _288  and  _291
REMARK  111  A    between atoms: _291  and  _292
REMARK  112  A    between atoms: _302  and  _304
REMARK  113  A    between atoms: _304  and  _305
REMARK  114  A    between atoms: _304  and  _307
REMARK  115  A    between atoms: _307  and  _308
REMARK  116  A    between atoms: _308  and  _309
REMARK  117  A    between atoms: _309  and  _310
REMARK  118  A    between atoms: _310  and  _311
REMARK  119  A    between atoms: _316  and  _317
REMARK  120  A    between atoms: _322  and  _324
REMARK  121  A    between atoms: _324  and  _325
REMARK  122  A    between atoms: _324  and  _327
REMARK  123  A    between atoms: _327  and  _328
REMARK  124  A    between atoms: _331  and  _333
REMARK  125  A    between atoms: _333  and  _334
REMARK  126  A    between atoms: _333  and  _336
REMARK  127  A    between atoms: _336  and  _337
REMARK  128  A    between atoms: _342  and  _343
REMARK  129  A    between atoms: _345  and  _347
REMARK  130  A    between atoms: _347  and  _348
REMARK  131  A    between atoms: _347  and  _350
REMARK  132  A    between atoms: _350  and  _351
REMARK  133  A    between atoms: _353  and  _355
REMARK  134  A    between atoms: _355  and  _356
REMARK  135  A    between atoms: _359  and  _361
REMARK  136  A    between atoms: _361  and  _362
REMARK  137  A    between atoms: _361  and  _364
REMARK  138  A    between atoms: _364  and  _365
REMARK  139  A    between atoms: _365  and  _366
REMARK  140  A    between atoms: _368  and  _370
REMARK  141  A    between atoms: _370  and  _371
REMARK  142  A    between atoms: _370  and  _373
REMARK  143  A    between atoms: _373  and  _374
REMARK  144  A    between atoms: _374  and  _375
REMARK  145  A    between atoms: _380  and  _382
REMARK  146  A    between atoms: _382  and  _383
REMARK  147  A    between atoms: _382  and  _385
REMARK  148  A    between atoms: _385  and  _386
REMARK  149  A    between atoms: _389  and  _391
REMARK  150  A    between atoms: _391  and  _392
REMARK  151  A    between atoms: _391  and  _394
REMARK  152  A    between atoms: _394  and  _395
REMARK  153  A    between atoms: _400  and  _402
REMARK  154  A    between atoms: _402  and  _403
REMARK  155  A    between atoms: _402  and  _405
REMARK  156  A    between atoms: _405  and  _406
REMARK  157  A    between atoms: _409  and  _411
REMARK  158  A    between atoms: _411  and  _412
REMARK  159  A    between atoms: _411  and  _414
REMARK  160  A    between atoms: _414  and  _415
REMARK  161  A    between atoms: _415  and  _416
REMARK  162  A    between atoms: _416  and  _417
REMARK  163  A    between atoms: _426  and  _428
REMARK  164  A    between atoms: _428  and  _429
REMARK  165  A    between atoms: _428  and  _431
REMARK  166  A    between atoms: _431  and  _432
REMARK  167  A    between atoms: _437  and  _438
REMARK                            x       y       z     vdW  Elec       q    Type
REMARK                         _______ _______ _______ _____ _____    ______ ____
ROOT
ATOM      1  O   HOH     1      -9.222 -17.985  27.587  0.00  0.00    +0.000 OA
ENDROOT
TORSDOF 0
REMARK  Name = ../refined-set-2016/3wqm/3wqm_pocket.pdb
REMARK  167 active torsions:
REMARK  status: ('A' for Active; 'I' for Inactive)
REMARK    1  A    between atoms: _1  and  _3
REMARK    2  A    between atoms: _3  and  _4
REMARK    3  A    between atoms: _3  and  _6
REMARK    4  A    between atoms: _6  and  _7
REMARK    5  A    between atoms: _13  and  _15
REMARK    6  A    between atoms: _15  and  _16
REMARK    7  A    between atoms: _15  and  _18
REMARK    8  A    between atoms: _18  and  _19
REMARK    9  A    between atoms: _19  and  _21
REMARK   10  A    between atoms: _22  and  _24
REMARK   11  A    between atoms: _24  and  _25
REMARK   12  A    between atoms: _27  and  _29
REMARK   13  A    between atoms: _29  and  _30
REMARK   14  A    between atoms: _29  and  _32
REMARK   15  A    between atoms: _32  and  _33
REMARK   16  A    between atoms: _36  and  _38
REMARK   17  A    between atoms: _38  and  _39
REMARK   18  A    between atoms: _38  and  _41
REMARK   19  A    between atoms: _41  and  _42
REMARK   20  A    between atoms: _42  and  _43
REMARK   21  A    between atoms: _43  and  _44
REMARK   22  A    between atoms: _53  and  _55
REMARK   23  A    between atoms: _55  and  _56
REMARK   24  A    between atoms: _55  and  _58
REMARK   25  A    between atoms: _58  and  _59
REMARK   26  A    between atoms: _59  and  _60
REMARK   27  A    between atoms: _60  and  _61
REMARK   28  A    between atoms: _70  and  _72
REMARK   29  A    between atoms: _72  and  _73
REMARK   30  A    between atoms: _72  and  _75
REMARK   31  A    between atoms: _75  and  _76
REMARK   32  A    between atoms: _86  and  _88
REMARK   33  A    between atoms: _88  and  _89
REMARK   34  A    between atoms: _88  and  _91
REMARK   35  A    between atoms: _91  and  _92
REMARK   36  A    between atoms: _98  and  _100
REMARK   37  A    between atoms: _100  and  _101
REMARK   38  A    between atoms: _100  and  _103
REMARK   39  A    between atoms: _103  and  _104
REMARK   40  A    between atoms: _109  and  _111
REMARK   41  A    between atoms: _111  and  _112
REMARK   42  A    between atoms: _111  and  _114
REMARK   43  A    between atoms: _114  and  _115
REMARK   44  A    between atoms: _118  and  _120
REMARK   45  A    between atoms: _120  and  _121
REMARK   46  A    between atoms: _120  and  _123
REMARK   47  A    between atoms: _123  and  _124
REMARK   48  A    between atoms: _124  and  _125
REMARK   49  A    between atoms: _128  and  _130
REMARK   50  A    between atoms: _130  and  _131
REMARK   51  A    between atoms: _130  and  _133
REMARK   52  A    between atoms: _133  and  _134
REMARK   53  A    between atoms: _139  and  _141
REMARK   54  A    between atoms: _141  and  _142
REMARK   55  A    between atoms: _141  and  _144
REMARK   56  A    between atoms: _144  and  _145
REMARK   57  A    between atoms: _150  and  _151
REMARK   58  A    between atoms: _153  and  _155
REMARK   59  A    between atoms: _155  and  _156
REMARK   60  A    between atoms: _155  and  _158
REMARK   61  A    between atoms: _158  and  _159
REMARK   62  A    between atoms: _162  and  _164
REMARK   63  A    between atoms: _164  and  _165
REMARK   64  A    between atoms: _164  and  _167
REMARK   65  A    between atoms: _167  and  _168
REMARK   66  A    between atoms: _168  and  _169
REMARK   67  A    between atoms: _169  and  _170
REMARK   68  A    between atoms: _179  and  _181
REMARK   69  A    between atoms: _181  and  _182
REMARK   70  A    between atoms: _181  and  _184
REMARK   71  A    between atoms: _184  and  _185
REMARK   72  A    between atoms: _190  and  _191
REMARK   73  A    between atoms: _193  and  _195
REMARK   74  A    between atoms: _195  and  _196
REMARK   75  A    between atoms: _195  and  _198
REMARK   76  A    between atoms: _198  and  _199
REMARK   77  A    between atoms: _199  and  _200
REMARK   78  A    between atoms: _205  and  _207
REMARK   79  A    between atoms: _207  and  _208
REMARK   80  A    between atoms: _207  and  _210
REMARK   81  A    between atoms: _210  and  _211
REMARK   82  A    between atoms: _217  and  _219
REMARK   83  A    between atoms: _219  and  _220
REMARK   84  A    between atoms: _219  and  _222
REMARK   85  A    between atoms: _222  and  _223
REMARK   86  A    between atoms: _223  and  _224
REMARK   87  A    between atoms: _224  and  _225
REMARK   88  A    between atoms: _235  and  _236
REMARK   89  A    between atoms: _241  and  _243
REMARK   90  A    between atoms: _243  and  _244
REMARK   91  A    between atoms: _243  and  _246
REMARK   92  A    between atoms: _246  and  _247
REMARK   93  A    between atoms: _249  and  _251
REMARK   94  A    between atoms: _251  and  _252
REMARK   95  A    between atoms: _251  and  _254
REMARK   96  A    between atoms: _254  and  _255
REMARK   97  A    between atoms: _260  and  _261
REMARK   98  A    between atoms: _263  and  _265
REMARK   99  A    between atoms: _265  and  _266
REMARK  100  A    between atoms: _265  and  _268
REMARK  101  A    between atoms: _268  and  _269
REMARK  102  A    between atoms: _272  and  _274
REMARK  103  A    between atoms: _274  and  _275
REMARK  104  A    between atoms: _277  and  _279
REMARK  105  A    between atoms: _279  and  _280
REMARK  106  A    between atoms: _279  and  _282
REMARK  107  A    between atoms: _282  and  _283
REMARK  108  A    between atoms: _286  and  _288
REMARK  109  A    between atoms: _288  and  _289
REMARK  110  A    between atoms: _288  and  _291
REMARK  111  A    between atoms: _291  and  _292
REMARK  112  A    between atoms: _302  and  _304
REMARK  113  A    between atoms: _304  and  _305
REMARK  114  A    between atoms: _304  and  _307
REMARK  115  A    between atoms: _307  and  _308
REMARK  116  A    between atoms: _308  and  _309
REMARK  117  A    between atoms: _309  and  _310
REMARK  118  A    between atoms: _310  and  _311
REMARK  119  A    between atoms: _316  and  _317
REMARK  120  A    between atoms: _322  and  _324
REMARK  121  A    between atoms: _324  and  _325
REMARK  122  A    between atoms: _324  and  _327
REMARK  123  A    between atoms: _327  and  _328
REMARK  124  A    between atoms: _331  and  _333
REMARK  125  A    between atoms: _333  and  _334
REMARK  126  A    between atoms: _333  and  _336
REMARK  127  A    between atoms: _336  and  _337
REMARK  128  A    between atoms: _342  and  _343
REMARK  129  A    between atoms: _345  and  _347
REMARK  130  A    between atoms: _347  and  _348
REMARK  131  A    between atoms: _347  and  _350
REMARK  132  A    between atoms: _350  and  _351
REMARK  133  A    between atoms: _353  and  _355
REMARK  134  A    between atoms: _355  and  _356
REMARK  135  A    between atoms: _359  and  _361
REMARK  136  A    between atoms: _361  and  _362
REMARK  137  A    between atoms: _361  and  _364
REMARK  138  A    between atoms: _364  and  _365
REMARK  139  A    between atoms: _365  and  _366
REMARK  140  A    between atoms: _368  and  _370
REMARK  141  A    between atoms: _370  and  _371
REMARK  142  A    between atoms: _370  and  _373
REMARK  143  A    between atoms: _373  and  _374
REMARK  144  A    between atoms: _374  and  _375
REMARK  145  A    between atoms: _380  and  _382
REMARK  146  A    between atoms: _382  and  _383
REMARK  147  A    between atoms: _382  and  _385
REMARK  148  A    between atoms: _385  and  _386
REMARK  149  A    between atoms: _389  and  _391
REMARK  150  A    between atoms: _391  and  _392
REMARK  151  A    between atoms: _391  and  _394
REMARK  152  A    between atoms: _394  and  _395
REMARK  153  A    between atoms: _400  and  _402
REMARK  154  A    between atoms: _402  and  _403
REMARK  155  A    between atoms: _402  and  _405
REMARK  156  A    between atoms: _405  and  _406
REMARK  157  A    between atoms: _409  and  _411
REMARK  158  A    between atoms: _411  and  _412
REMARK  159  A    between atoms: _411  and  _414
REMARK  160  A    between atoms: _414  and  _415
REMARK  161  A    between atoms: _415  and  _416
REMARK  162  A    between atoms: _416  and  _417
REMARK  163  A    between atoms: _426  and  _428
REMARK  164  A    between atoms: _428  and  _429
REMARK  165  A    between atoms: _428  and  _431
REMARK  166  A    between atoms: _431  and  _432
REMARK  167  A    between atoms: _437  and  _438
REMARK                            x       y       z     vdW  Elec       q    Type
REMARK                         _______ _______ _______ _____ _____    ______ ____
ROOT
ATOM      1  O   HOH     1     -10.144 -16.566  29.571  0.00  0.00    +0.000 OA
ENDROOT
TORSDOF 0
REMARK  Name = ../refined-set-2016/3wqm/3wqm_pocket.pdb
REMARK  167 active torsions:
REMARK  status: ('A' for Active; 'I' for Inactive)
REMARK    1  A    between atoms: _1  and  _3
REMARK    2  A    between atoms: _3  and  _4
REMARK    3  A    between atoms: _3  and  _6
REMARK    4  A    between atoms: _6  and  _7
REMARK    5  A    between atoms: _13  and  _15
REMARK    6  A    between atoms: _15  and  _16
REMARK    7  A    between atoms: _15  and  _18
REMARK    8  A    between atoms: _18  and  _19
REMARK    9  A    between atoms: _19  and  _21
REMARK   10  A    between atoms: _22  and  _24
REMARK   11  A    between atoms: _24  and  _25
REMARK   12  A    between atoms: _27  and  _29
REMARK   13  A    between atoms: _29  and  _30
REMARK   14  A    between atoms: _29  and  _32
REMARK   15  A    between atoms: _32  and  _33
REMARK   16  A    between atoms: _36  and  _38
REMARK   17  A    between atoms: _38  and  _39
REMARK   18  A    between atoms: _38  and  _41
REMARK   19  A    between atoms: _41  and  _42
REMARK   20  A    between atoms: _42  and  _43
REMARK   21  A    between atoms: _43  and  _44
REMARK   22  A    between atoms: _53  and  _55
REMARK   23  A    between atoms: _55  and  _56
REMARK   24  A    between atoms: _55  and  _58
REMARK   25  A    between atoms: _58  and  _59
REMARK   26  A    between atoms: _59  and  _60
REMARK   27  A    between atoms: _60  and  _61
REMARK   28  A    between atoms: _70  and  _72
REMARK   29  A    between atoms: _72  and  _73
REMARK   30  A    between atoms: _72  and  _75
REMARK   31  A    between atoms: _75  and  _76
REMARK   32  A    between atoms: _86  and  _88
REMARK   33  A    between atoms: _88  and  _89
REMARK   34  A    between atoms: _88  and  _91
REMARK   35  A    between atoms: _91  and  _92
REMARK   36  A    between atoms: _98  and  _100
REMARK   37  A    between atoms: _100  and  _101
REMARK   38  A    between atoms: _100  and  _103
REMARK   39  A    between atoms: _103  and  _104
REMARK   40  A    between atoms: _109  and  _111
REMARK   41  A    between atoms: _111  and  _112
REMARK   42  A    between atoms: _111  and  _114
REMARK   43  A    between atoms: _114  and  _115
REMARK   44  A    between atoms: _118  and  _120
REMARK   45  A    between atoms: _120  and  _121
REMARK   46  A    between atoms: _120  and  _123
REMARK   47  A    between atoms: _123  and  _124
REMARK   48  A    between atoms: _124  and  _125
REMARK   49  A    between atoms: _128  and  _130
REMARK   50  A    between atoms: _130  and  _131
REMARK   51  A    between atoms: _130  and  _133
REMARK   52  A    between atoms: _133  and  _134
REMARK   53  A    between atoms: _139  and  _141
REMARK   54  A    between atoms: _141  and  _142
REMARK   55  A    between atoms: _141  and  _144
REMARK   56  A    between atoms: _144  and  _145
REMARK   57  A    between atoms: _150  and  _151
REMARK   58  A    between atoms: _153  and  _155
REMARK   59  A    between atoms: _155  and  _156
REMARK   60  A    between atoms: _155  and  _158
REMARK   61  A    between atoms: _158  and  _159
REMARK   62  A    between atoms: _162  and  _164
REMARK   63  A    between atoms: _164  and  _165
REMARK   64  A    between atoms: _164  and  _167
REMARK   65  A    between atoms: _167  and  _168
REMARK   66  A    between atoms: _168  and  _169
REMARK   67  A    between atoms: _169  and  _170
REMARK   68  A    between atoms: _179  and  _181
REMARK   69  A    between atoms: _181  and  _182
REMARK   70  A    between atoms: _181  and  _184
REMARK   71  A    between atoms: _184  and  _185
REMARK   72  A    between atoms: _190  and  _191
REMARK   73  A    between atoms: _193  and  _195
REMARK   74  A    between atoms: _195  and  _196
REMARK   75  A    between atoms: _195  and  _198
REMARK   76  A    between atoms: _198  and  _199
REMARK   77  A    between atoms: _199  and  _200
REMARK   78  A    between atoms: _205  and  _207
REMARK   79  A    between atoms: _207  and  _208
REMARK   80  A    between atoms: _207  and  _210
REMARK   81  A    between atoms: _210  and  _211
REMARK   82  A    between atoms: _217  and  _219
REMARK   83  A    between atoms: _219  and  _220
REMARK   84  A    between atoms: _219  and  _222
REMARK   85  A    between atoms: _222  and  _223
REMARK   86  A    between atoms: _223  and  _224
REMARK   87  A    between atoms: _224  and  _225
REMARK   88  A    between atoms: _235  and  _236
REMARK   89  A    between atoms: _241  and  _243
REMARK   90  A    between atoms: _243  and  _244
REMARK   91  A    between atoms: _243  and  _246
REMARK   92  A    between atoms: _246  and  _247
REMARK   93  A    between atoms: _249  and  _251
REMARK   94  A    between atoms: _251  and  _252
REMARK   95  A    between atoms: _251  and  _254
REMARK   96  A    between atoms: _254  and  _255
REMARK   97  A    between atoms: _260  and  _261
REMARK   98  A    between atoms: _263  and  _265
REMARK   99  A    between atoms: _265  and  _266
REMARK  100  A    between atoms: _265  and  _268
REMARK  101  A    between atoms: _268  and  _269
REMARK  102  A    between atoms: _272  and  _274
REMARK  103  A    between atoms: _274  and  _275
REMARK  104  A    between atoms: _277  and  _279
REMARK  105  A    between atoms: _279  and  _280
REMARK  106  A    between atoms: _279  and  _282
REMARK  107  A    between atoms: _282  and  _283
REMARK  108  A    between atoms: _286  and  _288
REMARK  109  A    between atoms: _288  and  _289
REMARK  110  A    between atoms: _288  and  _291
REMARK  111  A    between atoms: _291  and  _292
REMARK  112  A    between atoms: _302  and  _304
REMARK  113  A    between atoms: _304  and  _305
REMARK  114  A    between atoms: _304  and  _307
REMARK  115  A    between atoms: _307  and  _308
REMARK  116  A    between atoms: _308  and  _309
REMARK  117  A    between atoms: _309  and  _310
REMARK  118  A    between atoms: _310  and  _311
REMARK  119  A    between atoms: _316  and  _317
REMARK  120  A    between atoms: _322  and  _324
REMARK  121  A    between atoms: _324  and  _325
REMARK  122  A    between atoms: _324  and  _327
REMARK  123  A    between atoms: _327  and  _328
REMARK  124  A    between atoms: _331  and  _333
REMARK  125  A    between atoms: _333  and  _334
REMARK  126  A    between atoms: _333  and  _336
REMARK  127  A    between atoms: _336  and  _337
REMARK  128  A    between atoms: _342  and  _343
REMARK  129  A    between atoms: _345  and  _347
REMARK  130  A    between atoms: _347  and  _348
REMARK  131  A    between atoms: _347  and  _350
REMARK  132  A    between atoms: _350  and  _351
REMARK  133  A    between atoms: _353  and  _355
REMARK  134  A    between atoms: _355  and  _356
REMARK  135  A    between atoms: _359  and  _361
REMARK  136  A    between atoms: _361  and  _362
REMARK  137  A    between atoms: _361  and  _364
REMARK  138  A    between atoms: _364  and  _365
REMARK  139  A    between atoms: _365  and  _366
REMARK  140  A    between atoms: _368  and  _370
REMARK  141  A    between atoms: _370  and  _371
REMARK  142  A    between atoms: _370  and  _373
REMARK  143  A    between atoms: _373  and  _374
REMARK  144  A    between atoms: _374  and  _375
REMARK  145  A    between atoms: _380  and  _382
REMARK  146  A    between atoms: _382  and  _383
REMARK  147  A    between atoms: _382  and  _385
REMARK  148  A    between atoms: _385  and  _386
REMARK  149  A    between atoms: _389  and  _391
REMARK  150  A    between atoms: _391  and  _392
REMARK  151  A    between atoms: _391  and  _394
REMARK  152  A    between atoms: _394  and  _395
REMARK  153  A    between atoms: _400  and  _402
REMARK  154  A    between atoms: _402  and  _403
REMARK  155  A    between atoms: _402  and  _405
REMARK  156  A    between atoms: _405  and  _406
REMARK  157  A    between atoms: _409  and  _411
REMARK  158  A    between atoms: _411  and  _412
REMARK  159  A    between atoms: _411  and  _414
REMARK  160  A    between atoms: _414  and  _415
REMARK  161  A    between atoms: _415  and  _416
REMARK  162  A    between atoms: _416  and  _417
REMARK  163  A    between atoms: _426  and  _428
REMARK  164  A    between atoms: _428  and  _429
REMARK  165  A    between atoms: _428  and  _431
REMARK  166  A    between atoms: _431  and  _432
REMARK  167  A    between atoms: _437  and  _438
REMARK                            x       y       z     vdW  Elec       q    Type
REMARK                         _______ _______ _______ _____ _____    ______ ____
ROOT
ATOM      1  O   HOH     1      -8.575 -15.959  10.373  0.00  0.00    +0.000 OA
ENDROOT
TORSDOF 0
REMARK  Name = ../refined-set-2016/3wqm/3wqm_pocket.pdb
REMARK  167 active torsions:
REMARK  status: ('A' for Active; 'I' for Inactive)
REMARK    1  A    between atoms: _1  and  _3
REMARK    2  A    between atoms: _3  and  _4
REMARK    3  A    between atoms: _3  and  _6
REMARK    4  A    between atoms: _6  and  _7
REMARK    5  A    between atoms: _13  and  _15
REMARK    6  A    between atoms: _15  and  _16
REMARK    7  A    between atoms: _15  and  _18
REMARK    8  A    between atoms: _18  and  _19
REMARK    9  A    between atoms: _19  and  _21
REMARK   10  A    between atoms: _22  and  _24
REMARK   11  A    between atoms: _24  and  _25
REMARK   12  A    between atoms: _27  and  _29
REMARK   13  A    between atoms: _29  and  _30
REMARK   14  A    between atoms: _29  and  _32
REMARK   15  A    between atoms: _32  and  _33
REMARK   16  A    between atoms: _36  and  _38
REMARK   17  A    between atoms: _38  and  _39
REMARK   18  A    between atoms: _38  and  _41
REMARK   19  A    between atoms: _41  and  _42
REMARK   20  A    between atoms: _42  and  _43
REMARK   21  A    between atoms: _43  and  _44
REMARK   22  A    between atoms: _53  and  _55
REMARK   23  A    between atoms: _55  and  _56
REMARK   24  A    between atoms: _55  and  _58
REMARK   25  A    between atoms: _58  and  _59
REMARK   26  A    between atoms: _59  and  _60
REMARK   27  A    between atoms: _60  and  _61
REMARK   28  A    between atoms: _70  and  _72
REMARK   29  A    between atoms: _72  and  _73
REMARK   30  A    between atoms: _72  and  _75
REMARK   31  A    between atoms: _75  and  _76
REMARK   32  A    between atoms: _86  and  _88
REMARK   33  A    between atoms: _88  and  _89
REMARK   34  A    between atoms: _88  and  _91
REMARK   35  A    between atoms: _91  and  _92
REMARK   36  A    between atoms: _98  and  _100
REMARK   37  A    between atoms: _100  and  _101
REMARK   38  A    between atoms: _100  and  _103
REMARK   39  A    between atoms: _103  and  _104
REMARK   40  A    between atoms: _109  and  _111
REMARK   41  A    between atoms: _111  and  _112
REMARK   42  A    between atoms: _111  and  _114
REMARK   43  A    between atoms: _114  and  _115
REMARK   44  A    between atoms: _118  and  _120
REMARK   45  A    between atoms: _120  and  _121
REMARK   46  A    between atoms: _120  and  _123
REMARK   47  A    between atoms: _123  and  _124
REMARK   48  A    between atoms: _124  and  _125
REMARK   49  A    between atoms: _128  and  _130
REMARK   50  A    between atoms: _130  and  _131
REMARK   51  A    between atoms: _130  and  _133
REMARK   52  A    between atoms: _133  and  _134
REMARK   53  A    between atoms: _139  and  _141
REMARK   54  A    between atoms: _141  and  _142
REMARK   55  A    between atoms: _141  and  _144
REMARK   56  A    between atoms: _144  and  _145
REMARK   57  A    between atoms: _150  and  _151
REMARK   58  A    between atoms: _153  and  _155
REMARK   59  A    between atoms: _155  and  _156
REMARK   60  A    between atoms: _155  and  _158
REMARK   61  A    between atoms: _158  and  _159
REMARK   62  A    between atoms: _162  and  _164
REMARK   63  A    between atoms: _164  and  _165
REMARK   64  A    between atoms: _164  and  _167
REMARK   65  A    between atoms: _167  and  _168
REMARK   66  A    between atoms: _168  and  _169
REMARK   67  A    between atoms: _169  and  _170
REMARK   68  A    between atoms: _179  and  _181
REMARK   69  A    between atoms: _181  and  _182
REMARK   70  A    between atoms: _181  and  _184
REMARK   71  A    between atoms: _184  and  _185
REMARK   72  A    between atoms: _190  and  _191
REMARK   73  A    between atoms: _193  and  _195
REMARK   74  A    between atoms: _195  and  _196
REMARK   75  A    between atoms: _195  and  _198
REMARK   76  A    between atoms: _198  and  _199
REMARK   77  A    between atoms: _199  and  _200
REMARK   78  A    between atoms: _205  and  _207
REMARK   79  A    between atoms: _207  and  _208
REMARK   80  A    between atoms: _207  and  _210
REMARK   81  A    between atoms: _210  and  _211
REMARK   82  A    between atoms: _217  and  _219
REMARK   83  A    between atoms: _219  and  _220
REMARK   84  A    between atoms: _219  and  _222
REMARK   85  A    between atoms: _222  and  _223
REMARK   86  A    between atoms: _223  and  _224
REMARK   87  A    between atoms: _224  and  _225
REMARK   88  A    between atoms: _235  and  _236
REMARK   89  A    between atoms: _241  and  _243
REMARK   90  A    between atoms: _243  and  _244
REMARK   91  A    between atoms: _243  and  _246
REMARK   92  A    between atoms: _246  and  _247
REMARK   93  A    between atoms: _249  and  _251
REMARK   94  A    between atoms: _251  and  _252
REMARK   95  A    between atoms: _251  and  _254
REMARK   96  A    between atoms: _254  and  _255
REMARK   97  A    between atoms: _260  and  _261
REMARK   98  A    between atoms: _263  and  _265
REMARK   99  A    between atoms: _265  and  _266
REMARK  100  A    between atoms: _265  and  _268
REMARK  101  A    between atoms: _268  and  _269
REMARK  102  A    between atoms: _272  and  _274
REMARK  103  A    between atoms: _274  and  _275
REMARK  104  A    between atoms: _277  and  _279
REMARK  105  A    between atoms: _279  and  _280
REMARK  106  A    between atoms: _279  and  _282
REMARK  107  A    between atoms: _282  and  _283
REMARK  108  A    between atoms: _286  and  _288
REMARK  109  A    between atoms: _288  and  _289
REMARK  110  A    between atoms: _288  and  _291
REMARK  111  A    between atoms: _291  and  _292
REMARK  112  A    between atoms: _302  and  _304
REMARK  113  A    between atoms: _304  and  _305
REMARK  114  A    between atoms: _304  and  _307
REMARK  115  A    between atoms: _307  and  _308
REMARK  116  A    between atoms: _308  and  _309
REMARK  117  A    between atoms: _309  and  _310
REMARK  118  A    between atoms: _310  and  _311
REMARK  119  A    between atoms: _316  and  _317
REMARK  120  A    between atoms: _322  and  _324
REMARK  121  A    between atoms: _324  and  _325
REMARK  122  A    between atoms: _324  and  _327
REMARK  123  A    between atoms: _327  and  _328
REMARK  124  A    between atoms: _331  and  _333
REMARK  125  A    between atoms: _333  and  _334
REMARK  126  A    between atoms: _333  and  _336
REMARK  127  A    between atoms: _336  and  _337
REMARK  128  A    between atoms: _342  and  _343
REMARK  129  A    between atoms: _345  and  _347
REMARK  130  A    between atoms: _347  and  _348
REMARK  131  A    between atoms: _347  and  _350
REMARK  132  A    between atoms: _350  and  _351
REMARK  133  A    between atoms: _353  and  _355
REMARK  134  A    between atoms: _355  and  _356
REMARK  135  A    between atoms: _359  and  _361
REMARK  136  A    between atoms: _361  and  _362
REMARK  137  A    between atoms: _361  and  _364
REMARK  138  A    between atoms: _364  and  _365
REMARK  139  A    between atoms: _365  and  _366
REMARK  140  A    between atoms: _368  and  _370
REMARK  141  A    between atoms: _370  and  _371
REMARK  142  A    between atoms: _370  and  _373
REMARK  143  A    between atoms: _373  and  _374
REMARK  144  A    between atoms: _374  and  _375
REMARK  145  A    between atoms: _380  and  _382
REMARK  146  A    between atoms: _382  and  _383
REMARK  147  A    between atoms: _382  and  _385
REMARK  148  A    between atoms: _385  and  _386
REMARK  149  A    between atoms: _389  and  _391
REMARK  150  A    between atoms: _391  and  _392
REMARK  151  A    between atoms: _391  and  _394
REMARK  152  A    between atoms: _394  and  _395
REMARK  153  A    between atoms: _400  and  _402
REMARK  154  A    between atoms: _402  and  _403
REMARK  155  A    between atoms: _402  and  _405
REMARK  156  A    between atoms: _405  and  _406
REMARK  157  A    between atoms: _409  and  _411
REMARK  158  A    between atoms: _411  and  _412
REMARK  159  A    between atoms: _411  and  _414
REMARK  160  A    between atoms: _414  and  _415
REMARK  161  A    between atoms: _415  and  _416
REMARK  162  A    between atoms: _416  and  _417
REMARK  163  A    between atoms: _426  and  _428
REMARK  164  A    between atoms: _428  and  _429
REMARK  165  A    between atoms: _428  and  _431
REMARK  166  A    between atoms: _431  and  _432
REMARK  167  A    between atoms: _437  and  _438
REMARK                            x       y       z     vdW  Elec       q    Type
REMARK                         _______ _______ _______ _____ _____    ______ ____
ROOT
ATOM      1  O   HOH     1      -7.002 -22.783  12.787  0.00  0.00    +0.000 OA
ENDROOT
TORSDOF 0
REMARK  Name = ../refined-set-2016/3wqm/3wqm_pocket.pdb
REMARK  167 active torsions:
REMARK  status: ('A' for Active; 'I' for Inactive)
REMARK    1  A    between atoms: _1  and  _3
REMARK    2  A    between atoms: _3  and  _4
REMARK    3  A    between atoms: _3  and  _6
REMARK    4  A    between atoms: _6  and  _7
REMARK    5  A    between atoms: _13  and  _15
REMARK    6  A    between atoms: _15  and  _16
REMARK    7  A    between atoms: _15  and  _18
REMARK    8  A    between atoms: _18  and  _19
REMARK    9  A    between atoms: _19  and  _21
REMARK   10  A    between atoms: _22  and  _24
REMARK   11  A    between atoms: _24  and  _25
REMARK   12  A    between atoms: _27  and  _29
REMARK   13  A    between atoms: _29  and  _30
REMARK   14  A    between atoms: _29  and  _32
REMARK   15  A    between atoms: _32  and  _33
REMARK   16  A    between atoms: _36  and  _38
REMARK   17  A    between atoms: _38  and  _39
REMARK   18  A    between atoms: _38  and  _41
REMARK   19  A    between atoms: _41  and  _42
REMARK   20  A    between atoms: _42  and  _43
REMARK   21  A    between atoms: _43  and  _44
REMARK   22  A    between atoms: _53  and  _55
REMARK   23  A    between atoms: _55  and  _56
REMARK   24  A    between atoms: _55  and  _58
REMARK   25  A    between atoms: _58  and  _59
REMARK   26  A    between atoms: _59  and  _60
REMARK   27  A    between atoms: _60  and  _61
REMARK   28  A    between atoms: _70  and  _72
REMARK   29  A    between atoms: _72  and  _73
REMARK   30  A    between atoms: _72  and  _75
REMARK   31  A    between atoms: _75  and  _76
REMARK   32  A    between atoms: _86  and  _88
REMARK   33  A    between atoms: _88  and  _89
REMARK   34  A    between atoms: _88  and  _91
REMARK   35  A    between atoms: _91  and  _92
REMARK   36  A    between atoms: _98  and  _100
REMARK   37  A    between atoms: _100  and  _101
REMARK   38  A    between atoms: _100  and  _103
REMARK   39  A    between atoms: _103  and  _104
REMARK   40  A    between atoms: _109  and  _111
REMARK   41  A    between atoms: _111  and  _112
REMARK   42  A    between atoms: _111  and  _114
REMARK   43  A    between atoms: _114  and  _115
REMARK   44  A    between atoms: _118  and  _120
REMARK   45  A    between atoms: _120  and  _121
REMARK   46  A    between atoms: _120  and  _123
REMARK   47  A    between atoms: _123  and  _124
REMARK   48  A    between atoms: _124  and  _125
REMARK   49  A    between atoms: _128  and  _130
REMARK   50  A    between atoms: _130  and  _131
REMARK   51  A    between atoms: _130  and  _133
REMARK   52  A    between atoms: _133  and  _134
REMARK   53  A    between atoms: _139  and  _141
REMARK   54  A    between atoms: _141  and  _142
REMARK   55  A    between atoms: _141  and  _144
REMARK   56  A    between atoms: _144  and  _145
REMARK   57  A    between atoms: _150  and  _151
REMARK   58  A    between atoms: _153  and  _155
REMARK   59  A    between atoms: _155  and  _156
REMARK   60  A    between atoms: _155  and  _158
REMARK   61  A    between atoms: _158  and  _159
REMARK   62  A    between atoms: _162  and  _164
REMARK   63  A    between atoms: _164  and  _165
REMARK   64  A    between atoms: _164  and  _167
REMARK   65  A    between atoms: _167  and  _168
REMARK   66  A    between atoms: _168  and  _169
REMARK   67  A    between atoms: _169  and  _170
REMARK   68  A    between atoms: _179  and  _181
REMARK   69  A    between atoms: _181  and  _182
REMARK   70  A    between atoms: _181  and  _184
REMARK   71  A    between atoms: _184  and  _185
REMARK   72  A    between atoms: _190  and  _191
REMARK   73  A    between atoms: _193  and  _195
REMARK   74  A    between atoms: _195  and  _196
REMARK   75  A    between atoms: _195  and  _198
REMARK   76  A    between atoms: _198  and  _199
REMARK   77  A    between atoms: _199  and  _200
REMARK   78  A    between atoms: _205  and  _207
REMARK   79  A    between atoms: _207  and  _208
REMARK   80  A    between atoms: _207  and  _210
REMARK   81  A    between atoms: _210  and  _211
REMARK   82  A    between atoms: _217  and  _219
REMARK   83  A    between atoms: _219  and  _220
REMARK   84  A    between atoms: _219  and  _222
REMARK   85  A    between atoms: _222  and  _223
REMARK   86  A    between atoms: _223  and  _224
REMARK   87  A    between atoms: _224  and  _225
REMARK   88  A    between atoms: _235  and  _236
REMARK   89  A    between atoms: _241  and  _243
REMARK   90  A    between atoms: _243  and  _244
REMARK   91  A    between atoms: _243  and  _246
REMARK   92  A    between atoms: _246  and  _247
REMARK   93  A    between atoms: _249  and  _251
REMARK   94  A    between atoms: _251  and  _252
REMARK   95  A    between atoms: _251  and  _254
REMARK   96  A    between atoms: _254  and  _255
REMARK   97  A    between atoms: _260  and  _261
REMARK   98  A    between atoms: _263  and  _265
REMARK   99  A    between atoms: _265  and  _266
REMARK  100  A    between atoms: _265  and  _268
REMARK  101  A    between atoms: _268  and  _269
REMARK  102  A    between atoms: _272  and  _274
REMARK  103  A    between atoms: _274  and  _275
REMARK  104  A    between atoms: _277  and  _279
REMARK  105  A    between atoms: _279  and  _280
REMARK  106  A    between atoms: _279  and  _282
REMARK  107  A    between atoms: _282  and  _283
REMARK  108  A    between atoms: _286  and  _288
REMARK  109  A    between atoms: _288  and  _289
REMARK  110  A    between atoms: _288  and  _291
REMARK  111  A    between atoms: _291  and  _292
REMARK  112  A    between atoms: _302  and  _304
REMARK  113  A    between atoms: _304  and  _305
REMARK  114  A    between atoms: _304  and  _307
REMARK  115  A    between atoms: _307  and  _308
REMARK  116  A    between atoms: _308  and  _309
REMARK  117  A    between atoms: _309  and  _310
REMARK  118  A    between atoms: _310  and  _311
REMARK  119  A    between atoms: _316  and  _317
REMARK  120  A    between atoms: _322  and  _324
REMARK  121  A    between atoms: _324  and  _325
REMARK  122  A    between atoms: _324  and  _327
REMARK  123  A    between atoms: _327  and  _328
REMARK  124  A    between atoms: _331  and  _333
REMARK  125  A    between atoms: _333  and  _334
REMARK  126  A    between atoms: _333  and  _336
REMARK  127  A    between atoms: _336  and  _337
REMARK  128  A    between atoms: _342  and  _343
REMARK  129  A    between atoms: _345  and  _347
REMARK  130  A    between atoms: _347  and  _348
REMARK  131  A    between atoms: _347  and  _350
REMARK  132  A    between atoms: _350  and  _351
REMARK  133  A    between atoms: _353  and  _355
REMARK  134  A    between atoms: _355  and  _356
REMARK  135  A    between atoms: _359  and  _361
REMARK  136  A    between atoms: _361  and  _362
REMARK  137  A    between atoms: _361  and  _364
REMARK  138  A    between atoms: _364  and  _365
REMARK  139  A    between atoms: _365  and  _366
REMARK  140  A    between atoms: _368  and  _370
REMARK  141  A    between atoms: _370  and  _371
REMARK  142  A    between atoms: _370  and  _373
REMARK  143  A    between atoms: _373  and  _374
REMARK  144  A    between atoms: _374  and  _375
REMARK  145  A    between atoms: _380  and  _382
REMARK  146  A    between atoms: _382  and  _383
REMARK  147  A    between atoms: _382  and  _385
REMARK  148  A    between atoms: _385  and  _386
REMARK  149  A    between atoms: _389  and  _391
REMARK  150  A    between atoms: _391  and  _392
REMARK  151  A    between atoms: _391  and  _394
REMARK  152  A    between atoms: _394  and  _395
REMARK  153  A    between atoms: _400  and  _402
REMARK  154  A    between atoms: _402  and  _403
REMARK  155  A    between atoms: _402  and  _405
REMARK  156  A    between atoms: _405  and  _406
REMARK  157  A    between atoms: _409  and  _411
REMARK  158  A    between atoms: _411  and  _412
REMARK  159  A    between atoms: _411  and  _414
REMARK  160  A    between atoms: _414  and  _415
REMARK  161  A    between atoms: _415  and  _416
REMARK  162  A    between atoms: _416  and  _417
REMARK  163  A    between atoms: _426  and  _428
REMARK  164  A    between atoms: _428  and  _429
REMARK  165  A    between atoms: _428  and  _431
REMARK  166  A    between atoms: _431  and  _432
REMARK  167  A    between atoms: _437  and  _438
REMARK                            x       y       z     vdW  Elec       q    Type
REMARK                         _______ _______ _______ _____ _____    ______ ____
ROOT
ATOM      1  O   HOH     1       0.812 -11.880  29.693  0.00  0.00    +0.000 OA
ENDROOT
TORSDOF 0
