REMARK  Name = ../refined-set-2016/2jdp/2jdp_pocket.pdb
REMARK  89 active torsions:
REMARK  status: ('A' for Active; 'I' for Inactive)
REMARK    1  A    between atoms: _1  and  _3
REMARK    2  A    between atoms: _3  and  _4
REMARK    3  A    between atoms: _7  and  _9
REMARK    4  A    between atoms: _9  and  _10
REMARK    5  A    between atoms: _9  and  _12
REMARK    6  A    between atoms: _10  and  _11
REMARK    7  A    between atoms: _10  and  _18
REMARK    8  A    between atoms: _11  and  CA_239
REMARK    9  A    between atoms: _12  and  _13
REMARK   10  A    between atoms: _18  and  _20
REMARK   11  A    between atoms: _20  and  _21
REMARK   12  A    between atoms: _20  and  _23
REMARK   13  A    between atoms: _23  and  _24
REMARK   14  A    between atoms: _26  and  _28
REMARK   15  A    between atoms: _28  and  _29
REMARK   16  A    between atoms: _32  and  _34
REMARK   17  A    between atoms: _34  and  _35
REMARK   18  A    between atoms: _37  and  _39
REMARK   19  A    between atoms: _39  and  _40
REMARK   20  A    between atoms: _39  and  _42
REMARK   21  A    between atoms: _42  and  _43
REMARK   22  A    between atoms: _43  and  _44
REMARK   23  A    between atoms: _49  and  _51
REMARK   24  A    between atoms: _51  and  _52
REMARK   25  A    between atoms: _51  and  _54
REMARK   26  A    between atoms: _54  and  _55
REMARK   27  A    between atoms: _55  and  _56
REMARK   28  A    between atoms: _61  and  _63
REMARK   29  A    between atoms: _63  and  _64
REMARK   30  A    between atoms: _63  and  _66
REMARK   31  A    between atoms: _66  and  _67
REMARK   32  A    between atoms: _69  and  _71
REMARK   33  A    between atoms: _71  and  _72
REMARK   34  A    between atoms: _71  and  _74
REMARK   35  A    between atoms: _74  and  _75
REMARK   36  A    between atoms: _78  and  _80
REMARK   37  A    between atoms: _80  and  _81
REMARK   38  A    between atoms: _80  and  _83
REMARK   39  A    between atoms: _86  and  _88
REMARK   40  A    between atoms: _88  and  _89
REMARK   41  A    between atoms: _88  and  _91
REMARK   42  A    between atoms: _91  and  _92
REMARK   43  A    between atoms: _97  and  _99
REMARK   44  A    between atoms: _99  and  _100
REMARK   45  A    between atoms: _99  and  _102
REMARK   46  A    between atoms: _102  and  _103
REMARK   47  A    between atoms: _105  and  _107
REMARK   48  A    between atoms: _107  and  _108
REMARK   49  A    between atoms: _107  and  _110
REMARK   50  A    between atoms: _110  and  _111
REMARK   51  A    between atoms: _111  and  _112
REMARK   52  A    between atoms: _115  and  _117
REMARK   53  A    between atoms: _117  and  _118
REMARK   54  A    between atoms: _117  and  _120
REMARK   55  A    between atoms: _120  and  _121
REMARK   56  A    between atoms: _124  and  _126
REMARK   57  A    between atoms: _126  and  _127
REMARK   58  A    between atoms: _129  and  _131
REMARK   59  A    between atoms: _131  and  _132
REMARK   60  A    between atoms: _131  and  _134
REMARK   61  A    between atoms: _134  and  _135
REMARK   62  A    between atoms: _138  and  _140
REMARK   63  A    between atoms: _149  and  _152
REMARK   64  A    between atoms: _152  and  _153
REMARK   65  A    between atoms: _160  and  _163
REMARK   66  A    between atoms: _163  and  _164
REMARK   67  A    between atoms: _169  and  _172
REMARK   68  A    between atoms: _172  and  _173
REMARK   69  A    between atoms: _178  and  _179
REMARK   70  A    between atoms: _183  and  _186
REMARK   71  A    between atoms: _186  and  _187
REMARK   72  A    between atoms: _187  and  _188
REMARK   73  A    between atoms: _187  and  _189
REMARK   74  A    between atoms: _188  and  CA_239
REMARK   75  A    between atoms: _194  and  _195
REMARK   76  A    between atoms: _201  and  _203
REMARK   77  A    between atoms: _203  and  _204
REMARK   78  A    between atoms: _207  and  _209
REMARK   79  A    between atoms: _209  and  _210
REMARK   80  A    between atoms: _209  and  _212
REMARK   81  A    between atoms: _212  and  _213
REMARK   82  A    between atoms: _213  and  _214
REMARK   83  A    between atoms: _214  and  _215
REMARK   84  A    between atoms: _224  and  _226
REMARK   85  A    between atoms: _226  and  _227
REMARK   86  A    between atoms: _226  and  _229
REMARK   87  A    between atoms: _229  and  _230
REMARK   88  A    between atoms: _233  and  _235
REMARK   89  A    between atoms: _235  and  _236
REMARK                            x       y       z     vdW  Elec       q    Type
REMARK                         _______ _______ _______ _____ _____    ______ ____
ROOT
ATOM      1  C   UNK A  10     -30.784   5.062 -34.985  0.00  0.00    +0.000 C 
ATOM      2  N   UNK A  10     -29.689   5.801 -35.631  0.00  0.00    +0.000 N 
ATOM      3  C   TYR A   9     -28.426   5.374 -35.568  0.00  0.00    +0.000 C 
ATOM      4  O   TYR A   9     -28.126   4.322 -35.014  0.00  0.00    +0.000 OA
ATOM      5  CA  TYR A   9     -27.372   6.254 -36.257  0.00  0.00    +0.000 C 
ATOM      6  N   TYR A   9     -27.728   7.687 -36.281  0.00  0.00    +0.000 N 
ATOM      7  C   ASP A   8     -28.122   8.389 -35.219  0.00  0.00    +0.000 C 
ATOM      8  O   ASP A   8     -28.047   7.956 -34.047  0.00  0.00    +0.000 OA
ATOM      9  CA  ASP A   8     -28.588   9.842 -35.547  0.00  0.00    +0.000 C 
ATOM     10  N   ASP A   8     -28.131  10.263 -36.885  0.00  0.00    +0.000 N 
ATOM     11  C   ASN A   7     -26.888  10.719 -37.023  0.00  0.00    +0.000 C 
ATOM     12  O   ASN A   7     -26.129  10.890 -36.053  0.00  0.00    +0.000 OA
ATOM     13  CA  ASN A   7     -26.426  11.019 -38.448  0.00  0.00    +0.000 C 
ATOM     14  N   ASN A   7     -27.424  11.660 -39.328  0.00  0.00    +0.000 N 
ATOM     15  C   UNK A   6     -27.936  12.871 -39.093  0.00  0.00    +0.000 C 
ATOM     16  O   UNK A   6     -27.688  13.524 -38.066  0.00  0.00    +0.000 OA
ATOM     17  C   UNK A   6     -28.891  13.433 -40.160  0.00  0.00    +0.000 C 
ATOM     18  C   UNK A   6     -30.329  13.497 -39.625  0.00  0.00    +0.000 C 
ATOM     19  C   UNK A   6     -30.899  12.133 -39.283  0.00  0.00    +0.000 C 
ATOM     20  O   UNK A   6     -31.914  12.117 -38.546  0.00  0.00    +0.000 OA
ATOM     21  O   UNK A   6     -30.350  11.091 -39.747  0.00  0.00    +0.000 OA
ATOM     22 CA   UNK A   6     -30.779   8.752 -39.821  0.00  0.00    +0.000 Ca
ATOM     23  O   UNK A  11     -30.673   6.449 -40.560  0.00  0.00    +0.000 OA
ATOM     24  C   UNK A  11     -31.654   6.033 -39.892  0.00  0.00    +0.000 C 
ATOM     25  O   UNK A  11     -32.427   6.818 -39.316  0.00  0.00    +0.000 OA
ATOM     26  C   UNK A  11     -31.826   4.537 -39.697  0.00  0.00    +0.000 C 
ATOM     27  C   UNK A  11     -32.409   4.216 -38.323  0.00  0.00    +0.000 C 
ATOM     28  N   UNK A  11     -31.445   4.566 -37.285  0.00  0.00    +0.000 N 
ATOM     29  H   UNK A  11     -30.491   4.877 -37.556  0.00  0.00    +0.000 HD
ATOM     30  H   ASN A   7     -27.744  11.143 -40.172  0.00  0.00    +0.000 HD
ATOM     31  H   ASP A   8     -28.768  10.205 -37.705  0.00  0.00    +0.000 HD
ATOM     32  H   TYR A   9     -27.667   8.184 -37.192  0.00  0.00    +0.000 HD
ATOM     33  H   UNK A  10     -29.904   6.677 -36.149  0.00  0.00    +0.000 HD
ATOM     34  C   UNK A  10     -31.768   4.493 -36.000  0.00  0.00    +0.000 C 
ATOM     35  O   UNK A  10     -32.819   3.968 -35.599  0.00  0.00    +0.000 OA
ENDROOT
BRANCH  17  36
ATOM     36  N   UNK A   6     -28.855  12.787 -41.476  0.00  0.00    +0.000 N 
ATOM     37  H   UNK A   6     -29.552  12.050 -41.706  0.00  0.00    +0.000 HD
ATOM     38  C   THR A   5     -27.938  13.133 -42.383  0.00  0.00    +0.000 C 
ATOM     39  O   THR A   5     -26.949  13.832 -42.104  0.00  0.00    +0.000 OA
BRANCH  38  40
ATOM     40  CA  THR A   5     -28.146  12.629 -43.813  0.00  0.00    +0.000 C 
BRANCH  40  41
ATOM     41  N   THR A   5     -28.964  11.419 -43.925  0.00  0.00    +0.000 N 
ATOM     42  H   THR A   5     -29.978  11.460 -43.696  0.00  0.00    +0.000 HD
ATOM     43  C   GLY A   4     -28.420  10.262 -44.319  0.00  0.00    +0.000 C 
ATOM     44  O   GLY A   4     -27.190  10.084 -44.414  0.00  0.00    +0.000 OA
BRANCH  43  45
ATOM     45  CA  GLY A   4     -29.397   9.160 -44.675  0.00  0.00    +0.000 C 
BRANCH  45  46
ATOM     46  N   GLY A   4     -29.118   7.846 -44.087  0.00  0.00    +0.000 N 
ATOM     47  H   GLY A   4     -28.764   7.786 -43.111  0.00  0.00    +0.000 HD
ATOM     48  C   GLY A   3     -29.311   6.729 -44.785  0.00  0.00    +0.000 C 
ATOM     49  O   GLY A   3     -29.495   6.707 -46.011  0.00  0.00    +0.000 OA
BRANCH  48  50
ATOM     50  CA  GLY A   3     -29.316   5.421 -43.995  0.00  0.00    +0.000 C 
BRANCH  50  51
ATOM     51  N   GLY A   3     -28.913   5.595 -42.590  0.00  0.00    +0.000 N 
ATOM     52  H   GLY A   3     -29.585   5.997 -41.906  0.00  0.00    +0.000 HD
ATOM     53  C   ALA A   2     -27.688   5.239 -42.188  0.00  0.00    +0.000 C 
ATOM     54  O   ALA A   2     -26.837   4.752 -42.939  0.00  0.00    +0.000 OA
BRANCH  53  55
ATOM     55  CA  ALA A   2     -27.434   5.405 -40.697  0.00  0.00    +0.000 C 
BRANCH  55  56
ATOM     56  N   ALA A   2     -27.053   4.134 -40.117  0.00  0.00    +0.000 N 
ATOM     57  C   SER A   1     -27.697   3.620 -39.053  0.00  0.00    +0.000 C 
ATOM     58  O   SER A   1     -28.645   4.154 -38.485  0.00  0.00    +0.000 OA
ATOM     59  H   ALA A   2     -26.261   3.604 -40.534  0.00  0.00    +0.000 HD
BRANCH  57  60
ATOM     60  CA  SER A   1     -27.140   2.298 -38.572  0.00  0.00    +0.000 C 
BRANCH  60  61
ATOM     61  N   SER A   1     -27.334   2.180 -37.133  0.00  0.00    +0.000 NA
ATOM     62  H   SER A   1     -28.217   2.523 -36.704  0.00  0.00    +0.000 HD
ENDBRANCH  60  61
BRANCH  60  63
ATOM     63  CB  SER A   1     -27.788   1.127 -39.300  0.00  0.00    +0.000 C 
BRANCH  63  64
ATOM     64  OG  SER A   1     -29.193   1.205 -39.154  0.00  0.00    +0.000 OA
ATOM     65  H   SER A   1     -29.426   1.168 -38.193  0.00  0.00    +0.000 HD
ENDBRANCH  63  64
ENDBRANCH  60  63
ENDBRANCH  57  60
ENDBRANCH  55  56
BRANCH  55  66
ATOM     66  CB  ALA A   2     -26.327   6.429 -40.463  0.00  0.00    +0.000 C 
BRANCH  66  67
ATOM     67  CG  ALA A   2     -26.628   7.844 -40.996  0.00  0.00    +0.000 C 
BRANCH  67  68
ATOM     68  CD  ALA A   2     -27.948   8.353 -40.510  0.00  0.00    +0.000 C 
ATOM     69  OE2 ALA A   2     -28.170   8.327 -39.267  0.00  0.00    +0.000 OA
ATOM     70  OE1 ALA A   2     -28.764   8.771 -41.386  0.00  0.00    +0.000 OA
ENDBRANCH  67  68
ENDBRANCH  66  67
ENDBRANCH  55  66
ENDBRANCH  53  55
ENDBRANCH  50  51
BRANCH  50  71
ATOM     71  CB  GLY A   3     -30.681   4.718 -44.096  0.00  0.00    +0.000 C 
BRANCH  71  72
ATOM     72  CG  GLY A   3     -31.813   5.527 -43.473  0.00  0.00    +0.000 C 
ATOM     73  OD2 GLY A   3     -32.791   4.915 -42.997  0.00  0.00    +0.000 OA
ATOM     74  OD1 GLY A   3     -31.755   6.786 -43.502  0.00  0.00    +0.000 OA
ENDBRANCH  71  72
ENDBRANCH  50  71
ENDBRANCH  48  50
ENDBRANCH  45  46
ENDBRANCH  43  45
ENDBRANCH  40  41
BRANCH  40  75
ATOM     75  CB  THR A   5     -28.704  13.797 -44.691  0.00  0.00    +0.000 C 
ATOM     76  CG2 THR A   5     -29.094  13.307 -46.090  0.00  0.00    +0.000 C 
BRANCH  75  77
ATOM     77  OG1 THR A   5     -29.833  14.400 -44.038  0.00  0.00    +0.000 OA
ATOM     78  HG1 THR A   5     -30.181  15.138 -44.598  0.00  0.00    +0.000 HD
ENDBRANCH  75  77
ENDBRANCH  40  75
ENDBRANCH  38  40
ENDBRANCH  17  36
BRANCH  27  79
ATOM     79  C   UNK A  11     -32.848   2.788 -38.178  0.00  0.00    +0.000 C 
ATOM     80  N   ALA A  12     -31.888   1.885 -37.992  0.00  0.00    +0.000 N 
ATOM     81  H   ALA A  12     -30.913   2.138 -38.252  0.00  0.00    +0.000 HD
ATOM     82  O   UNK A  11     -34.059   2.512 -38.240  0.00  0.00    +0.000 OA
BRANCH  80  83
ATOM     83  CA  ALA A  12     -32.137   0.558 -37.441  0.00  0.00    +0.000 C 
ATOM     84  CB  ALA A  12     -31.843  -0.511 -38.429  0.00  0.00    +0.000 C 
BRANCH  83  85
ATOM     85  C   ALA A  12     -31.198   0.408 -36.250  0.00  0.00    +0.000 C 
ATOM     86  O   ALA A  12     -29.993   0.685 -36.398  0.00  0.00    +0.000 OA
ENDBRANCH  83  85
ENDBRANCH  80  83
ENDBRANCH  27  79
BRANCH   5  87
ATOM     87  CB  TYR A   9     -25.938   6.013 -35.722  0.00  0.00    +0.000 C 
BRANCH  87  88
ATOM     88  CG  TYR A   9     -24.947   6.240 -36.824  0.00  0.00    +0.000 A 
ATOM     89  CD2 TYR A   9     -24.584   7.545 -37.185  0.00  0.00    +0.000 A 
ATOM     90  CE2 TYR A   9     -23.717   7.769 -38.252  0.00  0.00    +0.000 A 
ATOM     91  CZ  TYR A   9     -23.192   6.696 -38.947  0.00  0.00    +0.000 A 
ATOM     92  CE1 TYR A   9     -23.554   5.385 -38.617  0.00  0.00    +0.000 A 
ATOM     93  CD1 TYR A   9     -24.438   5.179 -37.556  0.00  0.00    +0.000 A 
BRANCH  91  94
ATOM     94  OH  TYR A   9     -22.329   6.931 -40.036  0.00  0.00    +0.000 OA
ATOM     95  HH  TYR A   9     -22.043   6.065 -40.422  0.00  0.00    +0.000 HD
ENDBRANCH  91  94
ENDBRANCH  87  88
ENDBRANCH   5  87
BRANCH   1  96
ATOM     96  C   UNK A  10     -31.527   5.929 -33.944  0.00  0.00    +0.000 C 
BRANCH  96  97
ATOM     97  C   UNK A  10     -32.437   6.952 -34.599  0.00  0.00    +0.000 C 
BRANCH  97  98
ATOM     98  N   UNK A  10     -33.183   7.690 -33.803  0.00  0.00    +0.000 NA
ATOM     99  H   UNK A  10     -33.117   7.572 -32.772  0.00  0.00    +0.000 HD
ATOM    100  H   UNK A  10     -33.838   8.391 -34.206  0.00  0.00    +0.000 HD
ENDBRANCH  97  98
BRANCH  97 101
ATOM    101  O   UNK A  10     -32.475   7.051 -35.833  0.00  0.00    +0.000 OA
BRANCH 101 102
ATOM    102 CA   UNK A  10     -33.661   8.087 -37.557  0.00  0.00    +0.000 Ca
BRANCH 102 103
ATOM    103  O   UNK A   0     -35.106   6.301 -37.635  0.00  0.00    +0.000 OA
BRANCH 103 104
ATOM    104  C   UNK A   0     -36.123   5.578 -37.596  0.00  0.00    +0.000 C 
BRANCH 104 105
ATOM    105  N   SER A   1     -36.885   5.398 -38.659  0.00  0.00    +0.000 NA
ATOM    106  H   SER A   1     -37.722   4.784 -38.590  0.00  0.00    +0.000 HD
BRANCH 105 107
ATOM    107  CA  SER A   1     -36.568   6.055 -39.946  0.00  0.00    +0.000 C 
BRANCH 107 108
ATOM    108  C   SER A   1     -37.830   6.143 -40.769  0.00  0.00    +0.000 C 
ATOM    109  O   SER A   1     -38.745   5.313 -40.610  0.00  0.00    +0.000 OA
ATOM    110  N   ALA A   2     -37.887   7.124 -41.673  0.00  0.00    +0.000 N 
ATOM    111  H   ALA A   2     -37.170   7.877 -41.664  0.00  0.00    +0.000 HD
BRANCH 110 112
ATOM    112  CA  ALA A   2     -38.959   7.146 -42.683  0.00  0.00    +0.000 C 
ATOM    113  CB  ALA A   2     -38.926   8.468 -43.462  0.00  0.00    +0.000 C 
BRANCH 112 114
ATOM    114  C   ALA A   2     -38.870   5.980 -43.652  0.00  0.00    +0.000 C 
ATOM    115  N   GLY A   3     -37.668   5.425 -43.817  0.00  0.00    +0.000 N 
ATOM    116  H   GLY A   3     -36.871   5.784 -43.253  0.00  0.00    +0.000 HD
ATOM    117  O   ALA A   2     -39.874   5.598 -44.270  0.00  0.00    +0.000 OA
BRANCH 115 118
ATOM    118  CA  GLY A   3     -37.427   4.343 -44.749  0.00  0.00    +0.000 C 
BRANCH 118 119
ATOM    119  C   GLY A   3     -37.581   2.957 -44.143  0.00  0.00    +0.000 C 
ATOM    120  O   GLY A   3     -37.322   2.760 -42.956  0.00  0.00    +0.000 OA
ENDBRANCH 118 119
ENDBRANCH 115 118
ENDBRANCH 112 114
ENDBRANCH 110 112
ENDBRANCH 107 108
BRANCH 107 121
ATOM    121  CB  SER A   1     -35.524   5.242 -40.716  0.00  0.00    +0.000 C 
BRANCH 121 122
ATOM    122  OG  SER A   1     -35.351   5.699 -42.077  0.00  0.00    +0.000 OA
ATOM    123  H   SER A   1     -34.668   5.141 -42.527  0.00  0.00    +0.000 HD
ENDBRANCH 121 122
ENDBRANCH 107 121
ENDBRANCH 105 107
ENDBRANCH 104 105
BRANCH 104 124
ATOM    124  C   UNK A   0     -36.520   4.809 -36.358  0.00  0.00    +0.000 C 
BRANCH 124 127
ATOM    125  C   UNK A   0     -37.057   2.414 -36.085  0.00  0.00    +0.000 C 
ATOM    126  O   UNK A   0     -37.976   2.614 -35.294  0.00  0.00    +0.000 OA
ATOM    127  N   UNK A   0     -36.298   3.383 -36.621  0.00  0.00    +0.000 N 
ATOM    128  H   UNK A   0     -35.517   3.110 -37.251  0.00  0.00    +0.000 HD
BRANCH 125 129
ATOM    129  C   UNK A   0     -36.669   0.995 -36.508  0.00  0.00    +0.000 C 
ATOM    130  C   UNK A   0     -37.531   0.511 -37.708  0.00  0.00    +0.000 C 
BRANCH 129 131
ATOM    131  N   UNK A   0     -36.771   0.023 -35.394  0.00  0.00    +0.000 NA
ATOM    132  H   UNK A   0     -37.691  -0.137 -34.935  0.00  0.00    +0.000 HD
ENDBRANCH 129 131
ENDBRANCH 125 129
ENDBRANCH 124 127
BRANCH 124 133
ATOM    133  C   UNK A   0     -35.657   5.293 -35.198  0.00  0.00    +0.000 C 
BRANCH 133 134
ATOM    134  C   UNK A   0     -36.091   4.718 -33.871  0.00  0.00    +0.000 C 
ATOM    135  O   UNK A   0     -37.078   5.158 -33.263  0.00  0.00    +0.000 OA
ATOM    136  N   UNK A   0     -35.313   3.737 -33.374  0.00  0.00    +0.000 N 
ATOM    137  H   UNK A   0     -35.531   3.319 -32.447  0.00  0.00    +0.000 HD
ATOM    138  H   UNK A   0     -34.494   3.397 -33.917  0.00  0.00    +0.000 HD
ENDBRANCH 133 134
ENDBRANCH 124 133
ENDBRANCH 104 124
ENDBRANCH 103 104
ENDBRANCH 102 103
ENDBRANCH 101 102
ENDBRANCH  97 101
ENDBRANCH  96  97
ENDBRANCH   1  96
BRANCH   9 139
ATOM    139  CB  ASP A   8     -30.100  10.130 -35.312  0.00  0.00    +0.000 C 
BRANCH 139 140
ATOM    140  CG  ASP A   8     -31.047   9.550 -36.395  0.00  0.00    +0.000 C 
ATOM    141  OD2 ASP A   8     -32.290   9.783 -36.261  0.00  0.00    +0.000 OA
ATOM    142  OD1 ASP A   8     -30.627   8.830 -37.330  0.00  0.00    +0.000 OA
ENDBRANCH 139 140
ENDBRANCH   9 139
BRANCH  13 143
ATOM    143  CB  ASN A   7     -25.100  11.796 -38.452  0.00  0.00    +0.000 C 
BRANCH 143 144
ATOM    144  CG  ASN A   7     -24.469  11.855 -39.833  0.00  0.00    +0.000 C 
ATOM    145  ND2 ASN A   7     -23.881  13.007 -40.166  0.00  0.00    +0.000 N 
ATOM    146 HD21 ASN A   7     -23.865  13.797 -39.490  0.00  0.00    +0.000 HD
ATOM    147 HD22 ASN A   7     -23.439  13.114 -41.101  0.00  0.00    +0.000 HD
ATOM    148  OD1 ASN A   7     -24.516  10.884 -40.600  0.00  0.00    +0.000 OA
ENDBRANCH 143 144
ENDBRANCH  13 143
TORSDOF 52
REMARK  Name = ../refined-set-2016/2jdp/2jdp_pocket.pdb
REMARK  89 active torsions:
REMARK  status: ('A' for Active; 'I' for Inactive)
REMARK    1  A    between atoms: _1  and  _3
REMARK    2  A    between atoms: _3  and  _4
REMARK    3  A    between atoms: _7  and  _9
REMARK    4  A    between atoms: _9  and  _10
REMARK    5  A    between atoms: _9  and  _12
REMARK    6  A    between atoms: _10  and  _11
REMARK    7  A    between atoms: _10  and  _18
REMARK    8  A    between atoms: _11  and  CA_239
REMARK    9  A    between atoms: _12  and  _13
REMARK   10  A    between atoms: _18  and  _20
REMARK   11  A    between atoms: _20  and  _21
REMARK   12  A    between atoms: _20  and  _23
REMARK   13  A    between atoms: _23  and  _24
REMARK   14  A    between atoms: _26  and  _28
REMARK   15  A    between atoms: _28  and  _29
REMARK   16  A    between atoms: _32  and  _34
REMARK   17  A    between atoms: _34  and  _35
REMARK   18  A    between atoms: _37  and  _39
REMARK   19  A    between atoms: _39  and  _40
REMARK   20  A    between atoms: _39  and  _42
REMARK   21  A    between atoms: _42  and  _43
REMARK   22  A    between atoms: _43  and  _44
REMARK   23  A    between atoms: _49  and  _51
REMARK   24  A    between atoms: _51  and  _52
REMARK   25  A    between atoms: _51  and  _54
REMARK   26  A    between atoms: _54  and  _55
REMARK   27  A    between atoms: _55  and  _56
REMARK   28  A    between atoms: _61  and  _63
REMARK   29  A    between atoms: _63  and  _64
REMARK   30  A    between atoms: _63  and  _66
REMARK   31  A    between atoms: _66  and  _67
REMARK   32  A    between atoms: _69  and  _71
REMARK   33  A    between atoms: _71  and  _72
REMARK   34  A    between atoms: _71  and  _74
REMARK   35  A    between atoms: _74  and  _75
REMARK   36  A    between atoms: _78  and  _80
REMARK   37  A    between atoms: _80  and  _81
REMARK   38  A    between atoms: _80  and  _83
REMARK   39  A    between atoms: _86  and  _88
REMARK   40  A    between atoms: _88  and  _89
REMARK   41  A    between atoms: _88  and  _91
REMARK   42  A    between atoms: _91  and  _92
REMARK   43  A    between atoms: _97  and  _99
REMARK   44  A    between atoms: _99  and  _100
REMARK   45  A    between atoms: _99  and  _102
REMARK   46  A    between atoms: _102  and  _103
REMARK   47  A    between atoms: _105  and  _107
REMARK   48  A    between atoms: _107  and  _108
REMARK   49  A    between atoms: _107  and  _110
REMARK   50  A    between atoms: _110  and  _111
REMARK   51  A    between atoms: _111  and  _112
REMARK   52  A    between atoms: _115  and  _117
REMARK   53  A    between atoms: _117  and  _118
REMARK   54  A    between atoms: _117  and  _120
REMARK   55  A    between atoms: _120  and  _121
REMARK   56  A    between atoms: _124  and  _126
REMARK   57  A    between atoms: _126  and  _127
REMARK   58  A    between atoms: _129  and  _131
REMARK   59  A    between atoms: _131  and  _132
REMARK   60  A    between atoms: _131  and  _134
REMARK   61  A    between atoms: _134  and  _135
REMARK   62  A    between atoms: _138  and  _140
REMARK   63  A    between atoms: _149  and  _152
REMARK   64  A    between atoms: _152  and  _153
REMARK   65  A    between atoms: _160  and  _163
REMARK   66  A    between atoms: _163  and  _164
REMARK   67  A    between atoms: _169  and  _172
REMARK   68  A    between atoms: _172  and  _173
REMARK   69  A    between atoms: _178  and  _179
REMARK   70  A    between atoms: _183  and  _186
REMARK   71  A    between atoms: _186  and  _187
REMARK   72  A    between atoms: _187  and  _188
REMARK   73  A    between atoms: _187  and  _189
REMARK   74  A    between atoms: _188  and  CA_239
REMARK   75  A    between atoms: _194  and  _195
REMARK   76  A    between atoms: _201  and  _203
REMARK   77  A    between atoms: _203  and  _204
REMARK   78  A    between atoms: _207  and  _209
REMARK   79  A    between atoms: _209  and  _210
REMARK   80  A    between atoms: _209  and  _212
REMARK   81  A    between atoms: _212  and  _213
REMARK   82  A    between atoms: _213  and  _214
REMARK   83  A    between atoms: _214  and  _215
REMARK   84  A    between atoms: _224  and  _226
REMARK   85  A    between atoms: _226  and  _227
REMARK   86  A    between atoms: _226  and  _229
REMARK   87  A    between atoms: _229  and  _230
REMARK   88  A    between atoms: _233  and  _235
REMARK   89  A    between atoms: _235  and  _236
REMARK                            x       y       z     vdW  Elec       q    Type
REMARK                         _______ _______ _______ _____ _____    ______ ____
ROOT
ATOM      1  CB  GLN A   1     -34.901  -0.845 -41.284  0.00  0.00    +0.035 C 
ENDROOT
BRANCH   1   2
ATOM      2  CA  GLN A   1     -35.172  -1.089 -42.771  0.00  0.00    +0.134 C 
BRANCH   2   3
ATOM      3  N   GLN A   1     -36.463  -0.504 -43.134  0.00  0.00    -0.239 NA
ATOM      4  H   GLN A   1     -37.239  -0.519 -42.442  0.00  0.00    +0.142 HD
ENDBRANCH   2   3
BRANCH   2   5
ATOM      5  C   GLN A   1     -35.170  -2.584 -43.012  0.00  0.00    +0.224 C 
ATOM      6  O   GLN A   1     -36.147  -3.255 -42.646  0.00  0.00    -0.287 OA
ENDBRANCH   2   5
ENDBRANCH   1   2
BRANCH   1   7
ATOM      7  CG  GLN A   1     -34.997   0.625 -40.896  0.00  0.00    +0.087 C 
BRANCH   7   8
ATOM      8  CD  GLN A   1     -33.896   1.468 -41.530  0.00  0.00    +0.219 C 
ATOM      9  OE1 GLN A   1     -32.711   1.141 -41.419  0.00  0.00    -0.275 OA
ATOM     10  NE2 GLN A   1     -34.286   2.566 -42.197  0.00  0.00    -0.329 N 
ATOM     11 HE21 GLN A   1     -35.297   2.802 -42.264  0.00  0.00    +0.145 HD
ATOM     12 HE22 GLN A   1     -33.577   3.181 -42.646  0.00  0.00    +0.145 HD
ENDBRANCH   7   8
ENDBRANCH   1   7
TORSDOF 5
REMARK  Name = ../refined-set-2016/2jdp/2jdp_pocket.pdb
REMARK  89 active torsions:
REMARK  status: ('A' for Active; 'I' for Inactive)
REMARK    1  A    between atoms: _1  and  _3
REMARK    2  A    between atoms: _3  and  _4
REMARK    3  A    between atoms: _7  and  _9
REMARK    4  A    between atoms: _9  and  _10
REMARK    5  A    between atoms: _9  and  _12
REMARK    6  A    between atoms: _10  and  _11
REMARK    7  A    between atoms: _10  and  _18
REMARK    8  A    between atoms: _11  and  CA_239
REMARK    9  A    between atoms: _12  and  _13
REMARK   10  A    between atoms: _18  and  _20
REMARK   11  A    between atoms: _20  and  _21
REMARK   12  A    between atoms: _20  and  _23
REMARK   13  A    between atoms: _23  and  _24
REMARK   14  A    between atoms: _26  and  _28
REMARK   15  A    between atoms: _28  and  _29
REMARK   16  A    between atoms: _32  and  _34
REMARK   17  A    between atoms: _34  and  _35
REMARK   18  A    between atoms: _37  and  _39
REMARK   19  A    between atoms: _39  and  _40
REMARK   20  A    between atoms: _39  and  _42
REMARK   21  A    between atoms: _42  and  _43
REMARK   22  A    between atoms: _43  and  _44
REMARK   23  A    between atoms: _49  and  _51
REMARK   24  A    between atoms: _51  and  _52
REMARK   25  A    between atoms: _51  and  _54
REMARK   26  A    between atoms: _54  and  _55
REMARK   27  A    between atoms: _55  and  _56
REMARK   28  A    between atoms: _61  and  _63
REMARK   29  A    between atoms: _63  and  _64
REMARK   30  A    between atoms: _63  and  _66
REMARK   31  A    between atoms: _66  and  _67
REMARK   32  A    between atoms: _69  and  _71
REMARK   33  A    between atoms: _71  and  _72
REMARK   34  A    between atoms: _71  and  _74
REMARK   35  A    between atoms: _74  and  _75
REMARK   36  A    between atoms: _78  and  _80
REMARK   37  A    between atoms: _80  and  _81
REMARK   38  A    between atoms: _80  and  _83
REMARK   39  A    between atoms: _86  and  _88
REMARK   40  A    between atoms: _88  and  _89
REMARK   41  A    between atoms: _88  and  _91
REMARK   42  A    between atoms: _91  and  _92
REMARK   43  A    between atoms: _97  and  _99
REMARK   44  A    between atoms: _99  and  _100
REMARK   45  A    between atoms: _99  and  _102
REMARK   46  A    between atoms: _102  and  _103
REMARK   47  A    between atoms: _105  and  _107
REMARK   48  A    between atoms: _107  and  _108
REMARK   49  A    between atoms: _107  and  _110
REMARK   50  A    between atoms: _110  and  _111
REMARK   51  A    between atoms: _111  and  _112
REMARK   52  A    between atoms: _115  and  _117
REMARK   53  A    between atoms: _117  and  _118
REMARK   54  A    between atoms: _117  and  _120
REMARK   55  A    between atoms: _120  and  _121
REMARK   56  A    between atoms: _124  and  _126
REMARK   57  A    between atoms: _126  and  _127
REMARK   58  A    between atoms: _129  and  _131
REMARK   59  A    between atoms: _131  and  _132
REMARK   60  A    between atoms: _131  and  _134
REMARK   61  A    between atoms: _134  and  _135
REMARK   62  A    between atoms: _138  and  _140
REMARK   63  A    between atoms: _149  and  _152
REMARK   64  A    between atoms: _152  and  _153
REMARK   65  A    between atoms: _160  and  _163
REMARK   66  A    between atoms: _163  and  _164
REMARK   67  A    between atoms: _169  and  _172
REMARK   68  A    between atoms: _172  and  _173
REMARK   69  A    between atoms: _178  and  _179
REMARK   70  A    between atoms: _183  and  _186
REMARK   71  A    between atoms: _186  and  _187
REMARK   72  A    between atoms: _187  and  _188
REMARK   73  A    between atoms: _187  and  _189
REMARK   74  A    between atoms: _188  and  CA_239
REMARK   75  A    between atoms: _194  and  _195
REMARK   76  A    between atoms: _201  and  _203
REMARK   77  A    between atoms: _203  and  _204
REMARK   78  A    between atoms: _207  and  _209
REMARK   79  A    between atoms: _209  and  _210
REMARK   80  A    between atoms: _209  and  _212
REMARK   81  A    between atoms: _212  and  _213
REMARK   82  A    between atoms: _213  and  _214
REMARK   83  A    between atoms: _214  and  _215
REMARK   84  A    between atoms: _224  and  _226
REMARK   85  A    between atoms: _226  and  _227
REMARK   86  A    between atoms: _226  and  _229
REMARK   87  A    between atoms: _229  and  _230
REMARK   88  A    between atoms: _233  and  _235
REMARK   89  A    between atoms: _235  and  _236
REMARK                            x       y       z     vdW  Elec       q    Type
REMARK                         _______ _______ _______ _____ _____    ______ ____
ROOT
ATOM      1  CA  SER A   2     -41.302   2.859 -37.842  0.00  0.00    +0.178 C 
ENDROOT
BRANCH   1   3
ATOM      2  C   GLN A   1     -41.447   1.333 -39.716  0.00  0.00    +0.238 C 
ATOM      3  N   SER A   2     -40.732   2.164 -38.962  0.00  0.00    -0.295 N 
ATOM      4  H   SER A   2     -39.729   2.315 -39.191  0.00  0.00    +0.150 HD
ATOM      5  O   GLN A   1     -42.629   1.039 -39.442  0.00  0.00    -0.274 OA
BRANCH   2   6
ATOM      6  CA  GLN A   1     -40.773   0.740 -40.929  0.00  0.00    +0.145 C 
BRANCH   6   7
ATOM      7  N   GLN A   1     -40.912  -0.709 -40.944  0.00  0.00    -0.238 NA
ATOM      8  H   GLN A   1     -41.836  -1.133 -40.725  0.00  0.00    +0.142 HD
ENDBRANCH   6   7
BRANCH   6   9
ATOM      9  CB  GLN A   1     -41.302   1.355 -42.244  0.00  0.00    +0.036 C 
BRANCH   9  10
ATOM     10  CG  GLN A   1     -41.059   2.873 -42.386  0.00  0.00    +0.087 C 
BRANCH  10  11
ATOM     11  CD  GLN A   1     -42.050   3.736 -41.628  0.00  0.00    +0.219 C 
ATOM     12  NE2 GLN A   1     -41.560   4.788 -40.993  0.00  0.00    -0.329 N 
ATOM     13 HE21 GLN A   1     -42.196   5.419 -40.465  0.00  0.00    +0.145 HD
ATOM     14 HE22 GLN A   1     -40.539   4.984 -41.022  0.00  0.00    +0.145 HD
ATOM     15  OE1 GLN A   1     -43.263   3.463 -41.621  0.00  0.00    -0.275 OA
ENDBRANCH  10  11
ENDBRANCH   9  10
ENDBRANCH   6   9
ENDBRANCH   2   6
ENDBRANCH   1   3
BRANCH   1  16
ATOM     16  C   SER A   2     -40.452   4.104 -37.589  0.00  0.00    +0.243 C 
ATOM     17  N   THR A   3     -41.078   5.160 -37.086  0.00  0.00    -0.296 N 
ATOM     18  H   THR A   3     -42.118   5.182 -37.101  0.00  0.00    +0.150 HD
ATOM     19  O   SER A   2     -39.222   4.075 -37.826  0.00  0.00    -0.273 OA
BRANCH  17  20
ATOM     20  CA  THR A   3     -40.350   6.301 -36.507  0.00  0.00    +0.164 C 
BRANCH  20  21
ATOM     21  C   THR A   3     -40.534   6.363 -34.979  0.00  0.00    +0.229 C 
ATOM     22  O   THR A   3     -40.241   7.392 -34.329  0.00  0.00    -0.286 OA
ENDBRANCH  20  21
BRANCH  20  23
ATOM     23  CB  THR A   3     -40.779   7.633 -37.179  0.00  0.00    +0.136 C 
ATOM     24  CG2 THR A   3     -40.272   7.676 -38.626  0.00  0.00    +0.034 C 
BRANCH  23  25
ATOM     25  OG1 THR A   3     -42.213   7.709 -37.186  0.00  0.00    -0.382 OA
ATOM     26  HG1 THR A   3     -42.580   6.943 -37.695  0.00  0.00    +0.210 HD
ENDBRANCH  23  25
ENDBRANCH  20  23
ENDBRANCH  17  20
ENDBRANCH   1  16
BRANCH   1  27
ATOM     27  CB  SER A   2     -41.240   1.964 -36.578  0.00  0.00    +0.166 C 
BRANCH  27  28
ATOM     28  OG  SER A   2     -41.838   2.572 -35.454  0.00  0.00    -0.380 OA
ATOM     29  H   SER A   2     -42.790   2.759 -35.649  0.00  0.00    +0.211 HD
ENDBRANCH  27  28
ENDBRANCH   1  27
TORSDOF 13
REMARK  Name = ../refined-set-2016/2jdp/2jdp_pocket.pdb
REMARK  89 active torsions:
REMARK  status: ('A' for Active; 'I' for Inactive)
REMARK    1  A    between atoms: _1  and  _3
REMARK    2  A    between atoms: _3  and  _4
REMARK    3  A    between atoms: _7  and  _9
REMARK    4  A    between atoms: _9  and  _10
REMARK    5  A    between atoms: _9  and  _12
REMARK    6  A    between atoms: _10  and  _11
REMARK    7  A    between atoms: _10  and  _18
REMARK    8  A    between atoms: _11  and  CA_239
REMARK    9  A    between atoms: _12  and  _13
REMARK   10  A    between atoms: _18  and  _20
REMARK   11  A    between atoms: _20  and  _21
REMARK   12  A    between atoms: _20  and  _23
REMARK   13  A    between atoms: _23  and  _24
REMARK   14  A    between atoms: _26  and  _28
REMARK   15  A    between atoms: _28  and  _29
REMARK   16  A    between atoms: _32  and  _34
REMARK   17  A    between atoms: _34  and  _35
REMARK   18  A    between atoms: _37  and  _39
REMARK   19  A    between atoms: _39  and  _40
REMARK   20  A    between atoms: _39  and  _42
REMARK   21  A    between atoms: _42  and  _43
REMARK   22  A    between atoms: _43  and  _44
REMARK   23  A    between atoms: _49  and  _51
REMARK   24  A    between atoms: _51  and  _52
REMARK   25  A    between atoms: _51  and  _54
REMARK   26  A    between atoms: _54  and  _55
REMARK   27  A    between atoms: _55  and  _56
REMARK   28  A    between atoms: _61  and  _63
REMARK   29  A    between atoms: _63  and  _64
REMARK   30  A    between atoms: _63  and  _66
REMARK   31  A    between atoms: _66  and  _67
REMARK   32  A    between atoms: _69  and  _71
REMARK   33  A    between atoms: _71  and  _72
REMARK   34  A    between atoms: _71  and  _74
REMARK   35  A    between atoms: _74  and  _75
REMARK   36  A    between atoms: _78  and  _80
REMARK   37  A    between atoms: _80  and  _81
REMARK   38  A    between atoms: _80  and  _83
REMARK   39  A    between atoms: _86  and  _88
REMARK   40  A    between atoms: _88  and  _89
REMARK   41  A    between atoms: _88  and  _91
REMARK   42  A    between atoms: _91  and  _92
REMARK   43  A    between atoms: _97  and  _99
REMARK   44  A    between atoms: _99  and  _100
REMARK   45  A    between atoms: _99  and  _102
REMARK   46  A    between atoms: _102  and  _103
REMARK   47  A    between atoms: _105  and  _107
REMARK   48  A    between atoms: _107  and  _108
REMARK   49  A    between atoms: _107  and  _110
REMARK   50  A    between atoms: _110  and  _111
REMARK   51  A    between atoms: _111  and  _112
REMARK   52  A    between atoms: _115  and  _117
REMARK   53  A    between atoms: _117  and  _118
REMARK   54  A    between atoms: _117  and  _120
REMARK   55  A    between atoms: _120  and  _121
REMARK   56  A    between atoms: _124  and  _126
REMARK   57  A    between atoms: _126  and  _127
REMARK   58  A    between atoms: _129  and  _131
REMARK   59  A    between atoms: _131  and  _132
REMARK   60  A    between atoms: _131  and  _134
REMARK   61  A    between atoms: _134  and  _135
REMARK   62  A    between atoms: _138  and  _140
REMARK   63  A    between atoms: _149  and  _152
REMARK   64  A    between atoms: _152  and  _153
REMARK   65  A    between atoms: _160  and  _163
REMARK   66  A    between atoms: _163  and  _164
REMARK   67  A    between atoms: _169  and  _172
REMARK   68  A    between atoms: _172  and  _173
REMARK   69  A    between atoms: _178  and  _179
REMARK   70  A    between atoms: _183  and  _186
REMARK   71  A    between atoms: _186  and  _187
REMARK   72  A    between atoms: _187  and  _188
REMARK   73  A    between atoms: _187  and  _189
REMARK   74  A    between atoms: _188  and  CA_239
REMARK   75  A    between atoms: _194  and  _195
REMARK   76  A    between atoms: _201  and  _203
REMARK   77  A    between atoms: _203  and  _204
REMARK   78  A    between atoms: _207  and  _209
REMARK   79  A    between atoms: _209  and  _210
REMARK   80  A    between atoms: _209  and  _212
REMARK   81  A    between atoms: _212  and  _213
REMARK   82  A    between atoms: _213  and  _214
REMARK   83  A    between atoms: _214  and  _215
REMARK   84  A    between atoms: _224  and  _226
REMARK   85  A    between atoms: _226  and  _227
REMARK   86  A    between atoms: _226  and  _229
REMARK   87  A    between atoms: _229  and  _230
REMARK   88  A    between atoms: _233  and  _235
REMARK   89  A    between atoms: _235  and  _236
REMARK                            x       y       z     vdW  Elec       q    Type
REMARK                         _______ _______ _______ _____ _____    ______ ____
ROOT
ATOM      1  C   VAL A   1     -32.544   1.033 -48.422  0.00  0.00    +0.238 C 
ATOM      2  O   VAL A   1     -31.537   1.520 -48.938  0.00  0.00    -0.274 OA
ATOM      3  N   ASN A   2     -33.674   0.821 -49.087  0.00  0.00    -0.298 N 
ATOM      4  H   ASN A   2     -34.483   0.404 -48.584  0.00  0.00    +0.150 HD
ENDROOT
BRANCH   1   5
ATOM      5  CA  VAL A   1     -32.524   0.642 -46.954  0.00  0.00    +0.145 C 
BRANCH   5   6
ATOM      6  CB  VAL A   1     -32.477   1.932 -46.080  0.00  0.00    +0.025 C 
ATOM      7  CG2 VAL A   1     -32.250   1.590 -44.617  0.00  0.00    +0.002 C 
ATOM      8  CG1 VAL A   1     -33.776   2.762 -46.226  0.00  0.00    +0.002 C 
ENDBRANCH   5   6
BRANCH   5   9
ATOM      9  N   VAL A   1     -31.319  -0.180 -46.778  0.00  0.00    -0.238 NA
ATOM     10  H   VAL A   1     -30.459   0.116 -47.282  0.00  0.00    +0.142 HD
ENDBRANCH   5   9
ENDBRANCH   1   5
BRANCH   3  11
ATOM     11  CA  ASN A   2     -33.820   1.160 -50.523  0.00  0.00    +0.146 C 
BRANCH  11  12
ATOM     12  C   ASN A   2     -32.688   0.601 -51.393  0.00  0.00    +0.227 C 
ATOM     13  O   ASN A   2     -32.135   1.314 -52.259  0.00  0.00    -0.286 OA
ENDBRANCH  11  12
BRANCH  11  14
ATOM     14  CB  ASN A   2     -33.928   2.682 -50.703  0.00  0.00    +0.112 C 
BRANCH  14  15
ATOM     15  CG  ASN A   2     -35.118   3.275 -49.967  0.00  0.00    +0.222 C 
ATOM     16  OD1 ASN A   2     -35.091   4.452 -49.573  0.00  0.00    -0.275 OA
ATOM     17  ND2 ASN A   2     -36.174   2.466 -49.770  0.00  0.00    -0.329 N 
ATOM     18 HD21 ASN A   2     -37.014   2.820 -49.269  0.00  0.00    +0.145 HD
ATOM     19 HD22 ASN A   2     -36.151   1.486 -50.119  0.00  0.00    +0.145 HD
ENDBRANCH  14  15
ENDBRANCH  11  14
ENDBRANCH   3  11
TORSDOF 7
REMARK  Name = ../refined-set-2016/2jdp/2jdp_pocket.pdb
REMARK  89 active torsions:
REMARK  status: ('A' for Active; 'I' for Inactive)
REMARK    1  A    between atoms: _1  and  _3
REMARK    2  A    between atoms: _3  and  _4
REMARK    3  A    between atoms: _7  and  _9
REMARK    4  A    between atoms: _9  and  _10
REMARK    5  A    between atoms: _9  and  _12
REMARK    6  A    between atoms: _10  and  _11
REMARK    7  A    between atoms: _10  and  _18
REMARK    8  A    between atoms: _11  and  CA_239
REMARK    9  A    between atoms: _12  and  _13
REMARK   10  A    between atoms: _18  and  _20
REMARK   11  A    between atoms: _20  and  _21
REMARK   12  A    between atoms: _20  and  _23
REMARK   13  A    between atoms: _23  and  _24
REMARK   14  A    between atoms: _26  and  _28
REMARK   15  A    between atoms: _28  and  _29
REMARK   16  A    between atoms: _32  and  _34
REMARK   17  A    between atoms: _34  and  _35
REMARK   18  A    between atoms: _37  and  _39
REMARK   19  A    between atoms: _39  and  _40
REMARK   20  A    between atoms: _39  and  _42
REMARK   21  A    between atoms: _42  and  _43
REMARK   22  A    between atoms: _43  and  _44
REMARK   23  A    between atoms: _49  and  _51
REMARK   24  A    between atoms: _51  and  _52
REMARK   25  A    between atoms: _51  and  _54
REMARK   26  A    between atoms: _54  and  _55
REMARK   27  A    between atoms: _55  and  _56
REMARK   28  A    between atoms: _61  and  _63
REMARK   29  A    between atoms: _63  and  _64
REMARK   30  A    between atoms: _63  and  _66
REMARK   31  A    between atoms: _66  and  _67
REMARK   32  A    between atoms: _69  and  _71
REMARK   33  A    between atoms: _71  and  _72
REMARK   34  A    between atoms: _71  and  _74
REMARK   35  A    between atoms: _74  and  _75
REMARK   36  A    between atoms: _78  and  _80
REMARK   37  A    between atoms: _80  and  _81
REMARK   38  A    between atoms: _80  and  _83
REMARK   39  A    between atoms: _86  and  _88
REMARK   40  A    between atoms: _88  and  _89
REMARK   41  A    between atoms: _88  and  _91
REMARK   42  A    between atoms: _91  and  _92
REMARK   43  A    between atoms: _97  and  _99
REMARK   44  A    between atoms: _99  and  _100
REMARK   45  A    between atoms: _99  and  _102
REMARK   46  A    between atoms: _102  and  _103
REMARK   47  A    between atoms: _105  and  _107
REMARK   48  A    between atoms: _107  and  _108
REMARK   49  A    between atoms: _107  and  _110
REMARK   50  A    between atoms: _110  and  _111
REMARK   51  A    between atoms: _111  and  _112
REMARK   52  A    between atoms: _115  and  _117
REMARK   53  A    between atoms: _117  and  _118
REMARK   54  A    between atoms: _117  and  _120
REMARK   55  A    between atoms: _120  and  _121
REMARK   56  A    between atoms: _124  and  _126
REMARK   57  A    between atoms: _126  and  _127
REMARK   58  A    between atoms: _129  and  _131
REMARK   59  A    between atoms: _131  and  _132
REMARK   60  A    between atoms: _131  and  _134
REMARK   61  A    between atoms: _134  and  _135
REMARK   62  A    between atoms: _138  and  _140
REMARK   63  A    between atoms: _149  and  _152
REMARK   64  A    between atoms: _152  and  _153
REMARK   65  A    between atoms: _160  and  _163
REMARK   66  A    between atoms: _163  and  _164
REMARK   67  A    between atoms: _169  and  _172
REMARK   68  A    between atoms: _172  and  _173
REMARK   69  A    between atoms: _178  and  _179
REMARK   70  A    between atoms: _183  and  _186
REMARK   71  A    between atoms: _186  and  _187
REMARK   72  A    between atoms: _187  and  _188
REMARK   73  A    between atoms: _187  and  _189
REMARK   74  A    between atoms: _188  and  CA_239
REMARK   75  A    between atoms: _194  and  _195
REMARK   76  A    between atoms: _201  and  _203
REMARK   77  A    between atoms: _203  and  _204
REMARK   78  A    between atoms: _207  and  _209
REMARK   79  A    between atoms: _209  and  _210
REMARK   80  A    between atoms: _209  and  _212
REMARK   81  A    between atoms: _212  and  _213
REMARK   82  A    between atoms: _213  and  _214
REMARK   83  A    between atoms: _214  and  _215
REMARK   84  A    between atoms: _224  and  _226
REMARK   85  A    between atoms: _226  and  _227
REMARK   86  A    between atoms: _226  and  _229
REMARK   87  A    between atoms: _229  and  _230
REMARK   88  A    between atoms: _233  and  _235
REMARK   89  A    between atoms: _235  and  _236
REMARK                            x       y       z     vdW  Elec       q    Type
REMARK                         _______ _______ _______ _____ _____    ______ ____
ROOT
ATOM      1  NE  ARG A   1     -40.671   9.998 -29.760  0.00  0.00    -0.265 N 
ATOM      2  HE  ARG A   1     -39.744  10.437 -29.934  0.00  0.00    +0.259 HD
ATOM      3  CZ  ARG A   1     -41.169   9.185 -30.694  0.00  0.00    +0.342 C 
ATOM      4  NH2 ARG A   1     -42.337   8.581 -30.490  0.00  0.00    -0.292 N 
ATOM      5 HH21 ARG A   1     -42.859   8.743 -29.605  0.00  0.00    +0.255 HD
ATOM      6 HH22 ARG A   1     -42.728   7.947 -31.216  0.00  0.00    +0.255 HD
ATOM      7  NH1 ARG A   1     -40.515   8.932 -31.819  0.00  0.00    -0.292 N 
ATOM      8 HH11 ARG A   1     -39.588   9.372 -31.992  0.00  0.00    +0.255 HD
ATOM      9 HH12 ARG A   1     -40.928   8.294 -32.529  0.00  0.00    +0.255 HD
ENDROOT
BRANCH   1  10
ATOM     10  CD  ARG A   1     -41.357  10.307 -28.503  0.00  0.00    +0.174 C 
BRANCH  10  11
ATOM     11  CG  ARG A   1     -40.420  10.831 -27.385  0.00  0.00    +0.045 C 
BRANCH  11  12
ATOM     12  CB  ARG A   1     -39.167   9.960 -27.270  0.00  0.00    +0.029 C 
BRANCH  12  13
ATOM     13  CA  ARG A   1     -38.474  10.036 -25.918  0.00  0.00    +0.133 C 
BRANCH  13  14
ATOM     14  N   ARG A   1     -37.829  11.335 -25.719  0.00  0.00    -0.239 NA
ATOM     15  H   ARG A   1     -37.791  12.019 -26.502  0.00  0.00    +0.142 HD
ENDBRANCH  13  14
BRANCH  13  16
ATOM     16  C   ARG A   1     -37.385   8.999 -25.912  0.00  0.00    +0.224 C 
ATOM     17  O   ARG A   1     -36.296   9.213 -26.480  0.00  0.00    -0.287 OA
ENDBRANCH  13  16
ENDBRANCH  12  13
ENDBRANCH  11  12
ENDBRANCH  10  11
ENDBRANCH   1  10
TORSDOF 6
REMARK  Name = ../refined-set-2016/2jdp/2jdp_pocket.pdb
REMARK  89 active torsions:
REMARK  status: ('A' for Active; 'I' for Inactive)
REMARK    1  A    between atoms: _1  and  _3
REMARK    2  A    between atoms: _3  and  _4
REMARK    3  A    between atoms: _7  and  _9
REMARK    4  A    between atoms: _9  and  _10
REMARK    5  A    between atoms: _9  and  _12
REMARK    6  A    between atoms: _10  and  _11
REMARK    7  A    between atoms: _10  and  _18
REMARK    8  A    between atoms: _11  and  CA_239
REMARK    9  A    between atoms: _12  and  _13
REMARK   10  A    between atoms: _18  and  _20
REMARK   11  A    between atoms: _20  and  _21
REMARK   12  A    between atoms: _20  and  _23
REMARK   13  A    between atoms: _23  and  _24
REMARK   14  A    between atoms: _26  and  _28
REMARK   15  A    between atoms: _28  and  _29
REMARK   16  A    between atoms: _32  and  _34
REMARK   17  A    between atoms: _34  and  _35
REMARK   18  A    between atoms: _37  and  _39
REMARK   19  A    between atoms: _39  and  _40
REMARK   20  A    between atoms: _39  and  _42
REMARK   21  A    between atoms: _42  and  _43
REMARK   22  A    between atoms: _43  and  _44
REMARK   23  A    between atoms: _49  and  _51
REMARK   24  A    between atoms: _51  and  _52
REMARK   25  A    between atoms: _51  and  _54
REMARK   26  A    between atoms: _54  and  _55
REMARK   27  A    between atoms: _55  and  _56
REMARK   28  A    between atoms: _61  and  _63
REMARK   29  A    between atoms: _63  and  _64
REMARK   30  A    between atoms: _63  and  _66
REMARK   31  A    between atoms: _66  and  _67
REMARK   32  A    between atoms: _69  and  _71
REMARK   33  A    between atoms: _71  and  _72
REMARK   34  A    between atoms: _71  and  _74
REMARK   35  A    between atoms: _74  and  _75
REMARK   36  A    between atoms: _78  and  _80
REMARK   37  A    between atoms: _80  and  _81
REMARK   38  A    between atoms: _80  and  _83
REMARK   39  A    between atoms: _86  and  _88
REMARK   40  A    between atoms: _88  and  _89
REMARK   41  A    between atoms: _88  and  _91
REMARK   42  A    between atoms: _91  and  _92
REMARK   43  A    between atoms: _97  and  _99
REMARK   44  A    between atoms: _99  and  _100
REMARK   45  A    between atoms: _99  and  _102
REMARK   46  A    between atoms: _102  and  _103
REMARK   47  A    between atoms: _105  and  _107
REMARK   48  A    between atoms: _107  and  _108
REMARK   49  A    between atoms: _107  and  _110
REMARK   50  A    between atoms: _110  and  _111
REMARK   51  A    between atoms: _111  and  _112
REMARK   52  A    between atoms: _115  and  _117
REMARK   53  A    between atoms: _117  and  _118
REMARK   54  A    between atoms: _117  and  _120
REMARK   55  A    between atoms: _120  and  _121
REMARK   56  A    between atoms: _124  and  _126
REMARK   57  A    between atoms: _126  and  _127
REMARK   58  A    between atoms: _129  and  _131
REMARK   59  A    between atoms: _131  and  _132
REMARK   60  A    between atoms: _131  and  _134
REMARK   61  A    between atoms: _134  and  _135
REMARK   62  A    between atoms: _138  and  _140
REMARK   63  A    between atoms: _149  and  _152
REMARK   64  A    between atoms: _152  and  _153
REMARK   65  A    between atoms: _160  and  _163
REMARK   66  A    between atoms: _163  and  _164
REMARK   67  A    between atoms: _169  and  _172
REMARK   68  A    between atoms: _172  and  _173
REMARK   69  A    between atoms: _178  and  _179
REMARK   70  A    between atoms: _183  and  _186
REMARK   71  A    between atoms: _186  and  _187
REMARK   72  A    between atoms: _187  and  _188
REMARK   73  A    between atoms: _187  and  _189
REMARK   74  A    between atoms: _188  and  CA_239
REMARK   75  A    between atoms: _194  and  _195
REMARK   76  A    between atoms: _201  and  _203
REMARK   77  A    between atoms: _203  and  _204
REMARK   78  A    between atoms: _207  and  _209
REMARK   79  A    between atoms: _209  and  _210
REMARK   80  A    between atoms: _209  and  _212
REMARK   81  A    between atoms: _212  and  _213
REMARK   82  A    between atoms: _213  and  _214
REMARK   83  A    between atoms: _214  and  _215
REMARK   84  A    between atoms: _224  and  _226
REMARK   85  A    between atoms: _226  and  _227
REMARK   86  A    between atoms: _226  and  _229
REMARK   87  A    between atoms: _229  and  _230
REMARK   88  A    between atoms: _233  and  _235
REMARK   89  A    between atoms: _235  and  _236
REMARK                            x       y       z     vdW  Elec       q    Type
REMARK                         _______ _______ _______ _____ _____    ______ ____
ROOT
ATOM      1  C   LEU A   1     -36.134   8.693 -32.573  0.00  0.00    +0.238 C 
ATOM      2  O   LEU A   1     -35.667   9.856 -32.626  0.00  0.00    -0.274 OA
ATOM      3  N   GLY A   2     -36.938   8.193 -33.501  0.00  0.00    -0.294 N 
ATOM      4  H   GLY A   2     -37.241   7.200 -33.433  0.00  0.00    +0.150 HD
ENDROOT
BRANCH   1   5
ATOM      5  CA  LEU A   1     -35.850   7.790 -31.365  0.00  0.00    +0.145 C 
BRANCH   5   6
ATOM      6  N   LEU A   1     -34.948   8.460 -30.412  0.00  0.00    -0.238 NA
ATOM      7  H   LEU A   1     -35.334   9.174 -29.761  0.00  0.00    +0.142 HD
ENDBRANCH   5   6
BRANCH   5   8
ATOM      8  CB  LEU A   1     -37.169   7.404 -30.679  0.00  0.00    +0.026 C 
BRANCH   8   9
ATOM      9  CG  LEU A   1     -37.038   6.659 -29.359  0.00  0.00    +0.002 C 
ATOM     10  CD2 LEU A   1     -38.425   6.243 -28.839  0.00  0.00    +0.000 C 
ATOM     11  CD1 LEU A   1     -36.115   5.460 -29.497  0.00  0.00    +0.000 C 
ENDBRANCH   8   9
ENDBRANCH   5   8
ENDBRANCH   1   5
BRANCH   3  12
ATOM     12  CA  GLY A   2     -37.408   9.015 -34.622  0.00  0.00    +0.205 C 
BRANCH  12  13
ATOM     13  C   GLY A   2     -36.544   8.996 -35.858  0.00  0.00    +0.385 C 
ATOM     14  OXT GLY A   2     -35.320   8.743 -35.801  0.00  0.00    -0.244 OA
ATOM     15  O   GLY A   2     -37.071   9.202 -36.959  0.00  0.00    -0.244 OA
ENDBRANCH  12  13
ENDBRANCH   3  12
TORSDOF 6
REMARK  Name = ../refined-set-2016/2jdp/2jdp_pocket.pdb
REMARK  89 active torsions:
REMARK  status: ('A' for Active; 'I' for Inactive)
REMARK    1  A    between atoms: _1  and  _3
REMARK    2  A    between atoms: _3  and  _4
REMARK    3  A    between atoms: _7  and  _9
REMARK    4  A    between atoms: _9  and  _10
REMARK    5  A    between atoms: _9  and  _12
REMARK    6  A    between atoms: _10  and  _11
REMARK    7  A    between atoms: _10  and  _18
REMARK    8  A    between atoms: _11  and  CA_239
REMARK    9  A    between atoms: _12  and  _13
REMARK   10  A    between atoms: _18  and  _20
REMARK   11  A    between atoms: _20  and  _21
REMARK   12  A    between atoms: _20  and  _23
REMARK   13  A    between atoms: _23  and  _24
REMARK   14  A    between atoms: _26  and  _28
REMARK   15  A    between atoms: _28  and  _29
REMARK   16  A    between atoms: _32  and  _34
REMARK   17  A    between atoms: _34  and  _35
REMARK   18  A    between atoms: _37  and  _39
REMARK   19  A    between atoms: _39  and  _40
REMARK   20  A    between atoms: _39  and  _42
REMARK   21  A    between atoms: _42  and  _43
REMARK   22  A    between atoms: _43  and  _44
REMARK   23  A    between atoms: _49  and  _51
REMARK   24  A    between atoms: _51  and  _52
REMARK   25  A    between atoms: _51  and  _54
REMARK   26  A    between atoms: _54  and  _55
REMARK   27  A    between atoms: _55  and  _56
REMARK   28  A    between atoms: _61  and  _63
REMARK   29  A    between atoms: _63  and  _64
REMARK   30  A    between atoms: _63  and  _66
REMARK   31  A    between atoms: _66  and  _67
REMARK   32  A    between atoms: _69  and  _71
REMARK   33  A    between atoms: _71  and  _72
REMARK   34  A    between atoms: _71  and  _74
REMARK   35  A    between atoms: _74  and  _75
REMARK   36  A    between atoms: _78  and  _80
REMARK   37  A    between atoms: _80  and  _81
REMARK   38  A    between atoms: _80  and  _83
REMARK   39  A    between atoms: _86  and  _88
REMARK   40  A    between atoms: _88  and  _89
REMARK   41  A    between atoms: _88  and  _91
REMARK   42  A    between atoms: _91  and  _92
REMARK   43  A    between atoms: _97  and  _99
REMARK   44  A    between atoms: _99  and  _100
REMARK   45  A    between atoms: _99  and  _102
REMARK   46  A    between atoms: _102  and  _103
REMARK   47  A    between atoms: _105  and  _107
REMARK   48  A    between atoms: _107  and  _108
REMARK   49  A    between atoms: _107  and  _110
REMARK   50  A    between atoms: _110  and  _111
REMARK   51  A    between atoms: _111  and  _112
REMARK   52  A    between atoms: _115  and  _117
REMARK   53  A    between atoms: _117  and  _118
REMARK   54  A    between atoms: _117  and  _120
REMARK   55  A    between atoms: _120  and  _121
REMARK   56  A    between atoms: _124  and  _126
REMARK   57  A    between atoms: _126  and  _127
REMARK   58  A    between atoms: _129  and  _131
REMARK   59  A    between atoms: _131  and  _132
REMARK   60  A    between atoms: _131  and  _134
REMARK   61  A    between atoms: _134  and  _135
REMARK   62  A    between atoms: _138  and  _140
REMARK   63  A    between atoms: _149  and  _152
REMARK   64  A    between atoms: _152  and  _153
REMARK   65  A    between atoms: _160  and  _163
REMARK   66  A    between atoms: _163  and  _164
REMARK   67  A    between atoms: _169  and  _172
REMARK   68  A    between atoms: _172  and  _173
REMARK   69  A    between atoms: _178  and  _179
REMARK   70  A    between atoms: _183  and  _186
REMARK   71  A    between atoms: _186  and  _187
REMARK   72  A    between atoms: _187  and  _188
REMARK   73  A    between atoms: _187  and  _189
REMARK   74  A    between atoms: _188  and  CA_239
REMARK   75  A    between atoms: _194  and  _195
REMARK   76  A    between atoms: _201  and  _203
REMARK   77  A    between atoms: _203  and  _204
REMARK   78  A    between atoms: _207  and  _209
REMARK   79  A    between atoms: _209  and  _210
REMARK   80  A    between atoms: _209  and  _212
REMARK   81  A    between atoms: _212  and  _213
REMARK   82  A    between atoms: _213  and  _214
REMARK   83  A    between atoms: _214  and  _215
REMARK   84  A    between atoms: _224  and  _226
REMARK   85  A    between atoms: _226  and  _227
REMARK   86  A    between atoms: _226  and  _229
REMARK   87  A    between atoms: _229  and  _230
REMARK   88  A    between atoms: _233  and  _235
REMARK   89  A    between atoms: _235  and  _236
REMARK                            x       y       z     vdW  Elec       q    Type
REMARK                         _______ _______ _______ _____ _____    ______ ____
ROOT
ATOM      1  O   HOH     1     -42.373   8.488 -41.705  0.00  0.00    +0.000 OA
ENDROOT
TORSDOF 0
REMARK  Name = ../refined-set-2016/2jdp/2jdp_pocket.pdb
REMARK  89 active torsions:
REMARK  status: ('A' for Active; 'I' for Inactive)
REMARK    1  A    between atoms: _1  and  _3
REMARK    2  A    between atoms: _3  and  _4
REMARK    3  A    between atoms: _7  and  _9
REMARK    4  A    between atoms: _9  and  _10
REMARK    5  A    between atoms: _9  and  _12
REMARK    6  A    between atoms: _10  and  _11
REMARK    7  A    between atoms: _10  and  _18
REMARK    8  A    between atoms: _11  and  CA_239
REMARK    9  A    between atoms: _12  and  _13
REMARK   10  A    between atoms: _18  and  _20
REMARK   11  A    between atoms: _20  and  _21
REMARK   12  A    between atoms: _20  and  _23
REMARK   13  A    between atoms: _23  and  _24
REMARK   14  A    between atoms: _26  and  _28
REMARK   15  A    between atoms: _28  and  _29
REMARK   16  A    between atoms: _32  and  _34
REMARK   17  A    between atoms: _34  and  _35
REMARK   18  A    between atoms: _37  and  _39
REMARK   19  A    between atoms: _39  and  _40
REMARK   20  A    between atoms: _39  and  _42
REMARK   21  A    between atoms: _42  and  _43
REMARK   22  A    between atoms: _43  and  _44
REMARK   23  A    between atoms: _49  and  _51
REMARK   24  A    between atoms: _51  and  _52
REMARK   25  A    between atoms: _51  and  _54
REMARK   26  A    between atoms: _54  and  _55
REMARK   27  A    between atoms: _55  and  _56
REMARK   28  A    between atoms: _61  and  _63
REMARK   29  A    between atoms: _63  and  _64
REMARK   30  A    between atoms: _63  and  _66
REMARK   31  A    between atoms: _66  and  _67
REMARK   32  A    between atoms: _69  and  _71
REMARK   33  A    between atoms: _71  and  _72
REMARK   34  A    between atoms: _71  and  _74
REMARK   35  A    between atoms: _74  and  _75
REMARK   36  A    between atoms: _78  and  _80
REMARK   37  A    between atoms: _80  and  _81
REMARK   38  A    between atoms: _80  and  _83
REMARK   39  A    between atoms: _86  and  _88
REMARK   40  A    between atoms: _88  and  _89
REMARK   41  A    between atoms: _88  and  _91
REMARK   42  A    between atoms: _91  and  _92
REMARK   43  A    between atoms: _97  and  _99
REMARK   44  A    between atoms: _99  and  _100
REMARK   45  A    between atoms: _99  and  _102
REMARK   46  A    between atoms: _102  and  _103
REMARK   47  A    between atoms: _105  and  _107
REMARK   48  A    between atoms: _107  and  _108
REMARK   49  A    between atoms: _107  and  _110
REMARK   50  A    between atoms: _110  and  _111
REMARK   51  A    between atoms: _111  and  _112
REMARK   52  A    between atoms: _115  and  _117
REMARK   53  A    between atoms: _117  and  _118
REMARK   54  A    between atoms: _117  and  _120
REMARK   55  A    between atoms: _120  and  _121
REMARK   56  A    between atoms: _124  and  _126
REMARK   57  A    between atoms: _126  and  _127
REMARK   58  A    between atoms: _129  and  _131
REMARK   59  A    between atoms: _131  and  _132
REMARK   60  A    between atoms: _131  and  _134
REMARK   61  A    between atoms: _134  and  _135
REMARK   62  A    between atoms: _138  and  _140
REMARK   63  A    between atoms: _149  and  _152
REMARK   64  A    between atoms: _152  and  _153
REMARK   65  A    between atoms: _160  and  _163
REMARK   66  A    between atoms: _163  and  _164
REMARK   67  A    between atoms: _169  and  _172
REMARK   68  A    between atoms: _172  and  _173
REMARK   69  A    between atoms: _178  and  _179
REMARK   70  A    between atoms: _183  and  _186
REMARK   71  A    between atoms: _186  and  _187
REMARK   72  A    between atoms: _187  and  _188
REMARK   73  A    between atoms: _187  and  _189
REMARK   74  A    between atoms: _188  and  CA_239
REMARK   75  A    between atoms: _194  and  _195
REMARK   76  A    between atoms: _201  and  _203
REMARK   77  A    between atoms: _203  and  _204
REMARK   78  A    between atoms: _207  and  _209
REMARK   79  A    between atoms: _209  and  _210
REMARK   80  A    between atoms: _209  and  _212
REMARK   81  A    between atoms: _212  and  _213
REMARK   82  A    between atoms: _213  and  _214
REMARK   83  A    between atoms: _214  and  _215
REMARK   84  A    between atoms: _224  and  _226
REMARK   85  A    between atoms: _226  and  _227
REMARK   86  A    between atoms: _226  and  _229
REMARK   87  A    between atoms: _229  and  _230
REMARK   88  A    between atoms: _233  and  _235
REMARK   89  A    between atoms: _235  and  _236
REMARK                            x       y       z     vdW  Elec       q    Type
REMARK                         _______ _______ _______ _____ _____    ______ ____
ROOT
ATOM      1  O   HOH     1     -38.098   2.666 -40.296  0.00  0.00    +0.000 OA
ENDROOT
TORSDOF 0
REMARK  Name = ../refined-set-2016/2jdp/2jdp_pocket.pdb
REMARK  89 active torsions:
REMARK  status: ('A' for Active; 'I' for Inactive)
REMARK    1  A    between atoms: _1  and  _3
REMARK    2  A    between atoms: _3  and  _4
REMARK    3  A    between atoms: _7  and  _9
REMARK    4  A    between atoms: _9  and  _10
REMARK    5  A    between atoms: _9  and  _12
REMARK    6  A    between atoms: _10  and  _11
REMARK    7  A    between atoms: _10  and  _18
REMARK    8  A    between atoms: _11  and  CA_239
REMARK    9  A    between atoms: _12  and  _13
REMARK   10  A    between atoms: _18  and  _20
REMARK   11  A    between atoms: _20  and  _21
REMARK   12  A    between atoms: _20  and  _23
REMARK   13  A    between atoms: _23  and  _24
REMARK   14  A    between atoms: _26  and  _28
REMARK   15  A    between atoms: _28  and  _29
REMARK   16  A    between atoms: _32  and  _34
REMARK   17  A    between atoms: _34  and  _35
REMARK   18  A    between atoms: _37  and  _39
REMARK   19  A    between atoms: _39  and  _40
REMARK   20  A    between atoms: _39  and  _42
REMARK   21  A    between atoms: _42  and  _43
REMARK   22  A    between atoms: _43  and  _44
REMARK   23  A    between atoms: _49  and  _51
REMARK   24  A    between atoms: _51  and  _52
REMARK   25  A    between atoms: _51  and  _54
REMARK   26  A    between atoms: _54  and  _55
REMARK   27  A    between atoms: _55  and  _56
REMARK   28  A    between atoms: _61  and  _63
REMARK   29  A    between atoms: _63  and  _64
REMARK   30  A    between atoms: _63  and  _66
REMARK   31  A    between atoms: _66  and  _67
REMARK   32  A    between atoms: _69  and  _71
REMARK   33  A    between atoms: _71  and  _72
REMARK   34  A    between atoms: _71  and  _74
REMARK   35  A    between atoms: _74  and  _75
REMARK   36  A    between atoms: _78  and  _80
REMARK   37  A    between atoms: _80  and  _81
REMARK   38  A    between atoms: _80  and  _83
REMARK   39  A    between atoms: _86  and  _88
REMARK   40  A    between atoms: _88  and  _89
REMARK   41  A    between atoms: _88  and  _91
REMARK   42  A    between atoms: _91  and  _92
REMARK   43  A    between atoms: _97  and  _99
REMARK   44  A    between atoms: _99  and  _100
REMARK   45  A    between atoms: _99  and  _102
REMARK   46  A    between atoms: _102  and  _103
REMARK   47  A    between atoms: _105  and  _107
REMARK   48  A    between atoms: _107  and  _108
REMARK   49  A    between atoms: _107  and  _110
REMARK   50  A    between atoms: _110  and  _111
REMARK   51  A    between atoms: _111  and  _112
REMARK   52  A    between atoms: _115  and  _117
REMARK   53  A    between atoms: _117  and  _118
REMARK   54  A    between atoms: _117  and  _120
REMARK   55  A    between atoms: _120  and  _121
REMARK   56  A    between atoms: _124  and  _126
REMARK   57  A    between atoms: _126  and  _127
REMARK   58  A    between atoms: _129  and  _131
REMARK   59  A    between atoms: _131  and  _132
REMARK   60  A    between atoms: _131  and  _134
REMARK   61  A    between atoms: _134  and  _135
REMARK   62  A    between atoms: _138  and  _140
REMARK   63  A    between atoms: _149  and  _152
REMARK   64  A    between atoms: _152  and  _153
REMARK   65  A    between atoms: _160  and  _163
REMARK   66  A    between atoms: _163  and  _164
REMARK   67  A    between atoms: _169  and  _172
REMARK   68  A    between atoms: _172  and  _173
REMARK   69  A    between atoms: _178  and  _179
REMARK   70  A    between atoms: _183  and  _186
REMARK   71  A    between atoms: _186  and  _187
REMARK   72  A    between atoms: _187  and  _188
REMARK   73  A    between atoms: _187  and  _189
REMARK   74  A    between atoms: _188  and  CA_239
REMARK   75  A    between atoms: _194  and  _195
REMARK   76  A    between atoms: _201  and  _203
REMARK   77  A    between atoms: _203  and  _204
REMARK   78  A    between atoms: _207  and  _209
REMARK   79  A    between atoms: _209  and  _210
REMARK   80  A    between atoms: _209  and  _212
REMARK   81  A    between atoms: _212  and  _213
REMARK   82  A    between atoms: _213  and  _214
REMARK   83  A    between atoms: _214  and  _215
REMARK   84  A    between atoms: _224  and  _226
REMARK   85  A    between atoms: _226  and  _227
REMARK   86  A    between atoms: _226  and  _229
REMARK   87  A    between atoms: _229  and  _230
REMARK   88  A    between atoms: _233  and  _235
REMARK   89  A    between atoms: _235  and  _236
REMARK                            x       y       z     vdW  Elec       q    Type
REMARK                         _______ _______ _______ _____ _____    ______ ____
ROOT
ATOM      1  O   HOH     1     -42.183   6.823 -44.097  0.00  0.00    +0.000 OA
ENDROOT
TORSDOF 0
REMARK  Name = ../refined-set-2016/2jdp/2jdp_pocket.pdb
REMARK  89 active torsions:
REMARK  status: ('A' for Active; 'I' for Inactive)
REMARK    1  A    between atoms: _1  and  _3
REMARK    2  A    between atoms: _3  and  _4
REMARK    3  A    between atoms: _7  and  _9
REMARK    4  A    between atoms: _9  and  _10
REMARK    5  A    between atoms: _9  and  _12
REMARK    6  A    between atoms: _10  and  _11
REMARK    7  A    between atoms: _10  and  _18
REMARK    8  A    between atoms: _11  and  CA_239
REMARK    9  A    between atoms: _12  and  _13
REMARK   10  A    between atoms: _18  and  _20
REMARK   11  A    between atoms: _20  and  _21
REMARK   12  A    between atoms: _20  and  _23
REMARK   13  A    between atoms: _23  and  _24
REMARK   14  A    between atoms: _26  and  _28
REMARK   15  A    between atoms: _28  and  _29
REMARK   16  A    between atoms: _32  and  _34
REMARK   17  A    between atoms: _34  and  _35
REMARK   18  A    between atoms: _37  and  _39
REMARK   19  A    between atoms: _39  and  _40
REMARK   20  A    between atoms: _39  and  _42
REMARK   21  A    between atoms: _42  and  _43
REMARK   22  A    between atoms: _43  and  _44
REMARK   23  A    between atoms: _49  and  _51
REMARK   24  A    between atoms: _51  and  _52
REMARK   25  A    between atoms: _51  and  _54
REMARK   26  A    between atoms: _54  and  _55
REMARK   27  A    between atoms: _55  and  _56
REMARK   28  A    between atoms: _61  and  _63
REMARK   29  A    between atoms: _63  and  _64
REMARK   30  A    between atoms: _63  and  _66
REMARK   31  A    between atoms: _66  and  _67
REMARK   32  A    between atoms: _69  and  _71
REMARK   33  A    between atoms: _71  and  _72
REMARK   34  A    between atoms: _71  and  _74
REMARK   35  A    between atoms: _74  and  _75
REMARK   36  A    between atoms: _78  and  _80
REMARK   37  A    between atoms: _80  and  _81
REMARK   38  A    between atoms: _80  and  _83
REMARK   39  A    between atoms: _86  and  _88
REMARK   40  A    between atoms: _88  and  _89
REMARK   41  A    between atoms: _88  and  _91
REMARK   42  A    between atoms: _91  and  _92
REMARK   43  A    between atoms: _97  and  _99
REMARK   44  A    between atoms: _99  and  _100
REMARK   45  A    between atoms: _99  and  _102
REMARK   46  A    between atoms: _102  and  _103
REMARK   47  A    between atoms: _105  and  _107
REMARK   48  A    between atoms: _107  and  _108
REMARK   49  A    between atoms: _107  and  _110
REMARK   50  A    between atoms: _110  and  _111
REMARK   51  A    between atoms: _111  and  _112
REMARK   52  A    between atoms: _115  and  _117
REMARK   53  A    between atoms: _117  and  _118
REMARK   54  A    between atoms: _117  and  _120
REMARK   55  A    between atoms: _120  and  _121
REMARK   56  A    between atoms: _124  and  _126
REMARK   57  A    between atoms: _126  and  _127
REMARK   58  A    between atoms: _129  and  _131
REMARK   59  A    between atoms: _131  and  _132
REMARK   60  A    between atoms: _131  and  _134
REMARK   61  A    between atoms: _134  and  _135
REMARK   62  A    between atoms: _138  and  _140
REMARK   63  A    between atoms: _149  and  _152
REMARK   64  A    between atoms: _152  and  _153
REMARK   65  A    between atoms: _160  and  _163
REMARK   66  A    between atoms: _163  and  _164
REMARK   67  A    between atoms: _169  and  _172
REMARK   68  A    between atoms: _172  and  _173
REMARK   69  A    between atoms: _178  and  _179
REMARK   70  A    between atoms: _183  and  _186
REMARK   71  A    between atoms: _186  and  _187
REMARK   72  A    between atoms: _187  and  _188
REMARK   73  A    between atoms: _187  and  _189
REMARK   74  A    between atoms: _188  and  CA_239
REMARK   75  A    between atoms: _194  and  _195
REMARK   76  A    between atoms: _201  and  _203
REMARK   77  A    between atoms: _203  and  _204
REMARK   78  A    between atoms: _207  and  _209
REMARK   79  A    between atoms: _209  and  _210
REMARK   80  A    between atoms: _209  and  _212
REMARK   81  A    between atoms: _212  and  _213
REMARK   82  A    between atoms: _213  and  _214
REMARK   83  A    between atoms: _214  and  _215
REMARK   84  A    between atoms: _224  and  _226
REMARK   85  A    between atoms: _226  and  _227
REMARK   86  A    between atoms: _226  and  _229
REMARK   87  A    between atoms: _229  and  _230
REMARK   88  A    between atoms: _233  and  _235
REMARK   89  A    between atoms: _235  and  _236
REMARK                            x       y       z     vdW  Elec       q    Type
REMARK                         _______ _______ _______ _____ _____    ______ ____
ROOT
ATOM      1  O   HOH     1     -35.214   6.677 -45.969  0.00  0.00    +0.000 OA
ENDROOT
TORSDOF 0
REMARK  Name = ../refined-set-2016/2jdp/2jdp_pocket.pdb
REMARK  89 active torsions:
REMARK  status: ('A' for Active; 'I' for Inactive)
REMARK    1  A    between atoms: _1  and  _3
REMARK    2  A    between atoms: _3  and  _4
REMARK    3  A    between atoms: _7  and  _9
REMARK    4  A    between atoms: _9  and  _10
REMARK    5  A    between atoms: _9  and  _12
REMARK    6  A    between atoms: _10  and  _11
REMARK    7  A    between atoms: _10  and  _18
REMARK    8  A    between atoms: _11  and  CA_239
REMARK    9  A    between atoms: _12  and  _13
REMARK   10  A    between atoms: _18  and  _20
REMARK   11  A    between atoms: _20  and  _21
REMARK   12  A    between atoms: _20  and  _23
REMARK   13  A    between atoms: _23  and  _24
REMARK   14  A    between atoms: _26  and  _28
REMARK   15  A    between atoms: _28  and  _29
REMARK   16  A    between atoms: _32  and  _34
REMARK   17  A    between atoms: _34  and  _35
REMARK   18  A    between atoms: _37  and  _39
REMARK   19  A    between atoms: _39  and  _40
REMARK   20  A    between atoms: _39  and  _42
REMARK   21  A    between atoms: _42  and  _43
REMARK   22  A    between atoms: _43  and  _44
REMARK   23  A    between atoms: _49  and  _51
REMARK   24  A    between atoms: _51  and  _52
REMARK   25  A    between atoms: _51  and  _54
REMARK   26  A    between atoms: _54  and  _55
REMARK   27  A    between atoms: _55  and  _56
REMARK   28  A    between atoms: _61  and  _63
REMARK   29  A    between atoms: _63  and  _64
REMARK   30  A    between atoms: _63  and  _66
REMARK   31  A    between atoms: _66  and  _67
REMARK   32  A    between atoms: _69  and  _71
REMARK   33  A    between atoms: _71  and  _72
REMARK   34  A    between atoms: _71  and  _74
REMARK   35  A    between atoms: _74  and  _75
REMARK   36  A    between atoms: _78  and  _80
REMARK   37  A    between atoms: _80  and  _81
REMARK   38  A    between atoms: _80  and  _83
REMARK   39  A    between atoms: _86  and  _88
REMARK   40  A    between atoms: _88  and  _89
REMARK   41  A    between atoms: _88  and  _91
REMARK   42  A    between atoms: _91  and  _92
REMARK   43  A    between atoms: _97  and  _99
REMARK   44  A    between atoms: _99  and  _100
REMARK   45  A    between atoms: _99  and  _102
REMARK   46  A    between atoms: _102  and  _103
REMARK   47  A    between atoms: _105  and  _107
REMARK   48  A    between atoms: _107  and  _108
REMARK   49  A    between atoms: _107  and  _110
REMARK   50  A    between atoms: _110  and  _111
REMARK   51  A    between atoms: _111  and  _112
REMARK   52  A    between atoms: _115  and  _117
REMARK   53  A    between atoms: _117  and  _118
REMARK   54  A    between atoms: _117  and  _120
REMARK   55  A    between atoms: _120  and  _121
REMARK   56  A    between atoms: _124  and  _126
REMARK   57  A    between atoms: _126  and  _127
REMARK   58  A    between atoms: _129  and  _131
REMARK   59  A    between atoms: _131  and  _132
REMARK   60  A    between atoms: _131  and  _134
REMARK   61  A    between atoms: _134  and  _135
REMARK   62  A    between atoms: _138  and  _140
REMARK   63  A    between atoms: _149  and  _152
REMARK   64  A    between atoms: _152  and  _153
REMARK   65  A    between atoms: _160  and  _163
REMARK   66  A    between atoms: _163  and  _164
REMARK   67  A    between atoms: _169  and  _172
REMARK   68  A    between atoms: _172  and  _173
REMARK   69  A    between atoms: _178  and  _179
REMARK   70  A    between atoms: _183  and  _186
REMARK   71  A    between atoms: _186  and  _187
REMARK   72  A    between atoms: _187  and  _188
REMARK   73  A    between atoms: _187  and  _189
REMARK   74  A    between atoms: _188  and  CA_239
REMARK   75  A    between atoms: _194  and  _195
REMARK   76  A    between atoms: _201  and  _203
REMARK   77  A    between atoms: _203  and  _204
REMARK   78  A    between atoms: _207  and  _209
REMARK   79  A    between atoms: _209  and  _210
REMARK   80  A    between atoms: _209  and  _212
REMARK   81  A    between atoms: _212  and  _213
REMARK   82  A    between atoms: _213  and  _214
REMARK   83  A    between atoms: _214  and  _215
REMARK   84  A    between atoms: _224  and  _226
REMARK   85  A    between atoms: _226  and  _227
REMARK   86  A    between atoms: _226  and  _229
REMARK   87  A    between atoms: _229  and  _230
REMARK   88  A    between atoms: _233  and  _235
REMARK   89  A    between atoms: _235  and  _236
REMARK                            x       y       z     vdW  Elec       q    Type
REMARK                         _______ _______ _______ _____ _____    ______ ____
ROOT
ATOM      1  O   HOH     1     -30.215   2.018 -41.677  0.00  0.00    +0.000 OA
ENDROOT
TORSDOF 0
REMARK  Name = ../refined-set-2016/2jdp/2jdp_pocket.pdb
REMARK  89 active torsions:
REMARK  status: ('A' for Active; 'I' for Inactive)
REMARK    1  A    between atoms: _1  and  _3
REMARK    2  A    between atoms: _3  and  _4
REMARK    3  A    between atoms: _7  and  _9
REMARK    4  A    between atoms: _9  and  _10
REMARK    5  A    between atoms: _9  and  _12
REMARK    6  A    between atoms: _10  and  _11
REMARK    7  A    between atoms: _10  and  _18
REMARK    8  A    between atoms: _11  and  CA_239
REMARK    9  A    between atoms: _12  and  _13
REMARK   10  A    between atoms: _18  and  _20
REMARK   11  A    between atoms: _20  and  _21
REMARK   12  A    between atoms: _20  and  _23
REMARK   13  A    between atoms: _23  and  _24
REMARK   14  A    between atoms: _26  and  _28
REMARK   15  A    between atoms: _28  and  _29
REMARK   16  A    between atoms: _32  and  _34
REMARK   17  A    between atoms: _34  and  _35
REMARK   18  A    between atoms: _37  and  _39
REMARK   19  A    between atoms: _39  and  _40
REMARK   20  A    between atoms: _39  and  _42
REMARK   21  A    between atoms: _42  and  _43
REMARK   22  A    between atoms: _43  and  _44
REMARK   23  A    between atoms: _49  and  _51
REMARK   24  A    between atoms: _51  and  _52
REMARK   25  A    between atoms: _51  and  _54
REMARK   26  A    between atoms: _54  and  _55
REMARK   27  A    between atoms: _55  and  _56
REMARK   28  A    between atoms: _61  and  _63
REMARK   29  A    between atoms: _63  and  _64
REMARK   30  A    between atoms: _63  and  _66
REMARK   31  A    between atoms: _66  and  _67
REMARK   32  A    between atoms: _69  and  _71
REMARK   33  A    between atoms: _71  and  _72
REMARK   34  A    between atoms: _71  and  _74
REMARK   35  A    between atoms: _74  and  _75
REMARK   36  A    between atoms: _78  and  _80
REMARK   37  A    between atoms: _80  and  _81
REMARK   38  A    between atoms: _80  and  _83
REMARK   39  A    between atoms: _86  and  _88
REMARK   40  A    between atoms: _88  and  _89
REMARK   41  A    between atoms: _88  and  _91
REMARK   42  A    between atoms: _91  and  _92
REMARK   43  A    between atoms: _97  and  _99
REMARK   44  A    between atoms: _99  and  _100
REMARK   45  A    between atoms: _99  and  _102
REMARK   46  A    between atoms: _102  and  _103
REMARK   47  A    between atoms: _105  and  _107
REMARK   48  A    between atoms: _107  and  _108
REMARK   49  A    between atoms: _107  and  _110
REMARK   50  A    between atoms: _110  and  _111
REMARK   51  A    between atoms: _111  and  _112
REMARK   52  A    between atoms: _115  and  _117
REMARK   53  A    between atoms: _117  and  _118
REMARK   54  A    between atoms: _117  and  _120
REMARK   55  A    between atoms: _120  and  _121
REMARK   56  A    between atoms: _124  and  _126
REMARK   57  A    between atoms: _126  and  _127
REMARK   58  A    between atoms: _129  and  _131
REMARK   59  A    between atoms: _131  and  _132
REMARK   60  A    between atoms: _131  and  _134
REMARK   61  A    between atoms: _134  and  _135
REMARK   62  A    between atoms: _138  and  _140
REMARK   63  A    between atoms: _149  and  _152
REMARK   64  A    between atoms: _152  and  _153
REMARK   65  A    between atoms: _160  and  _163
REMARK   66  A    between atoms: _163  and  _164
REMARK   67  A    between atoms: _169  and  _172
REMARK   68  A    between atoms: _172  and  _173
REMARK   69  A    between atoms: _178  and  _179
REMARK   70  A    between atoms: _183  and  _186
REMARK   71  A    between atoms: _186  and  _187
REMARK   72  A    between atoms: _187  and  _188
REMARK   73  A    between atoms: _187  and  _189
REMARK   74  A    between atoms: _188  and  CA_239
REMARK   75  A    between atoms: _194  and  _195
REMARK   76  A    between atoms: _201  and  _203
REMARK   77  A    between atoms: _203  and  _204
REMARK   78  A    between atoms: _207  and  _209
REMARK   79  A    between atoms: _209  and  _210
REMARK   80  A    between atoms: _209  and  _212
REMARK   81  A    between atoms: _212  and  _213
REMARK   82  A    between atoms: _213  and  _214
REMARK   83  A    between atoms: _214  and  _215
REMARK   84  A    between atoms: _224  and  _226
REMARK   85  A    between atoms: _226  and  _227
REMARK   86  A    between atoms: _226  and  _229
REMARK   87  A    between atoms: _229  and  _230
REMARK   88  A    between atoms: _233  and  _235
REMARK   89  A    between atoms: _235  and  _236
REMARK                            x       y       z     vdW  Elec       q    Type
REMARK                         _______ _______ _______ _____ _____    ______ ____
ROOT
ATOM      1  O   HOH     1     -35.120  13.329 -35.960  0.00  0.00    +0.000 OA
ENDROOT
TORSDOF 0
REMARK  Name = ../refined-set-2016/2jdp/2jdp_pocket.pdb
REMARK  89 active torsions:
REMARK  status: ('A' for Active; 'I' for Inactive)
REMARK    1  A    between atoms: _1  and  _3
REMARK    2  A    between atoms: _3  and  _4
REMARK    3  A    between atoms: _7  and  _9
REMARK    4  A    between atoms: _9  and  _10
REMARK    5  A    between atoms: _9  and  _12
REMARK    6  A    between atoms: _10  and  _11
REMARK    7  A    between atoms: _10  and  _18
REMARK    8  A    between atoms: _11  and  CA_239
REMARK    9  A    between atoms: _12  and  _13
REMARK   10  A    between atoms: _18  and  _20
REMARK   11  A    between atoms: _20  and  _21
REMARK   12  A    between atoms: _20  and  _23
REMARK   13  A    between atoms: _23  and  _24
REMARK   14  A    between atoms: _26  and  _28
REMARK   15  A    between atoms: _28  and  _29
REMARK   16  A    between atoms: _32  and  _34
REMARK   17  A    between atoms: _34  and  _35
REMARK   18  A    between atoms: _37  and  _39
REMARK   19  A    between atoms: _39  and  _40
REMARK   20  A    between atoms: _39  and  _42
REMARK   21  A    between atoms: _42  and  _43
REMARK   22  A    between atoms: _43  and  _44
REMARK   23  A    between atoms: _49  and  _51
REMARK   24  A    between atoms: _51  and  _52
REMARK   25  A    between atoms: _51  and  _54
REMARK   26  A    between atoms: _54  and  _55
REMARK   27  A    between atoms: _55  and  _56
REMARK   28  A    between atoms: _61  and  _63
REMARK   29  A    between atoms: _63  and  _64
REMARK   30  A    between atoms: _63  and  _66
REMARK   31  A    between atoms: _66  and  _67
REMARK   32  A    between atoms: _69  and  _71
REMARK   33  A    between atoms: _71  and  _72
REMARK   34  A    between atoms: _71  and  _74
REMARK   35  A    between atoms: _74  and  _75
REMARK   36  A    between atoms: _78  and  _80
REMARK   37  A    between atoms: _80  and  _81
REMARK   38  A    between atoms: _80  and  _83
REMARK   39  A    between atoms: _86  and  _88
REMARK   40  A    between atoms: _88  and  _89
REMARK   41  A    between atoms: _88  and  _91
REMARK   42  A    between atoms: _91  and  _92
REMARK   43  A    between atoms: _97  and  _99
REMARK   44  A    between atoms: _99  and  _100
REMARK   45  A    between atoms: _99  and  _102
REMARK   46  A    between atoms: _102  and  _103
REMARK   47  A    between atoms: _105  and  _107
REMARK   48  A    between atoms: _107  and  _108
REMARK   49  A    between atoms: _107  and  _110
REMARK   50  A    between atoms: _110  and  _111
REMARK   51  A    between atoms: _111  and  _112
REMARK   52  A    between atoms: _115  and  _117
REMARK   53  A    between atoms: _117  and  _118
REMARK   54  A    between atoms: _117  and  _120
REMARK   55  A    between atoms: _120  and  _121
REMARK   56  A    between atoms: _124  and  _126
REMARK   57  A    between atoms: _126  and  _127
REMARK   58  A    between atoms: _129  and  _131
REMARK   59  A    between atoms: _131  and  _132
REMARK   60  A    between atoms: _131  and  _134
REMARK   61  A    between atoms: _134  and  _135
REMARK   62  A    between atoms: _138  and  _140
REMARK   63  A    between atoms: _149  and  _152
REMARK   64  A    between atoms: _152  and  _153
REMARK   65  A    between atoms: _160  and  _163
REMARK   66  A    between atoms: _163  and  _164
REMARK   67  A    between atoms: _169  and  _172
REMARK   68  A    between atoms: _172  and  _173
REMARK   69  A    between atoms: _178  and  _179
REMARK   70  A    between atoms: _183  and  _186
REMARK   71  A    between atoms: _186  and  _187
REMARK   72  A    between atoms: _187  and  _188
REMARK   73  A    between atoms: _187  and  _189
REMARK   74  A    between atoms: _188  and  CA_239
REMARK   75  A    between atoms: _194  and  _195
REMARK   76  A    between atoms: _201  and  _203
REMARK   77  A    between atoms: _203  and  _204
REMARK   78  A    between atoms: _207  and  _209
REMARK   79  A    between atoms: _209  and  _210
REMARK   80  A    between atoms: _209  and  _212
REMARK   81  A    between atoms: _212  and  _213
REMARK   82  A    between atoms: _213  and  _214
REMARK   83  A    between atoms: _214  and  _215
REMARK   84  A    between atoms: _224  and  _226
REMARK   85  A    between atoms: _226  and  _227
REMARK   86  A    between atoms: _226  and  _229
REMARK   87  A    between atoms: _229  and  _230
REMARK   88  A    between atoms: _233  and  _235
REMARK   89  A    between atoms: _235  and  _236
REMARK                            x       y       z     vdW  Elec       q    Type
REMARK                         _______ _______ _______ _____ _____    ______ ____
ROOT
ATOM      1  O   HOH     1     -32.207  13.136 -32.921  0.00  0.00    +0.000 OA
ENDROOT
TORSDOF 0
REMARK  Name = ../refined-set-2016/2jdp/2jdp_pocket.pdb
REMARK  89 active torsions:
REMARK  status: ('A' for Active; 'I' for Inactive)
REMARK    1  A    between atoms: _1  and  _3
REMARK    2  A    between atoms: _3  and  _4
REMARK    3  A    between atoms: _7  and  _9
REMARK    4  A    between atoms: _9  and  _10
REMARK    5  A    between atoms: _9  and  _12
REMARK    6  A    between atoms: _10  and  _11
REMARK    7  A    between atoms: _10  and  _18
REMARK    8  A    between atoms: _11  and  CA_239
REMARK    9  A    between atoms: _12  and  _13
REMARK   10  A    between atoms: _18  and  _20
REMARK   11  A    between atoms: _20  and  _21
REMARK   12  A    between atoms: _20  and  _23
REMARK   13  A    between atoms: _23  and  _24
REMARK   14  A    between atoms: _26  and  _28
REMARK   15  A    between atoms: _28  and  _29
REMARK   16  A    between atoms: _32  and  _34
REMARK   17  A    between atoms: _34  and  _35
REMARK   18  A    between atoms: _37  and  _39
REMARK   19  A    between atoms: _39  and  _40
REMARK   20  A    between atoms: _39  and  _42
REMARK   21  A    between atoms: _42  and  _43
REMARK   22  A    between atoms: _43  and  _44
REMARK   23  A    between atoms: _49  and  _51
REMARK   24  A    between atoms: _51  and  _52
REMARK   25  A    between atoms: _51  and  _54
REMARK   26  A    between atoms: _54  and  _55
REMARK   27  A    between atoms: _55  and  _56
REMARK   28  A    between atoms: _61  and  _63
REMARK   29  A    between atoms: _63  and  _64
REMARK   30  A    between atoms: _63  and  _66
REMARK   31  A    between atoms: _66  and  _67
REMARK   32  A    between atoms: _69  and  _71
REMARK   33  A    between atoms: _71  and  _72
REMARK   34  A    between atoms: _71  and  _74
REMARK   35  A    between atoms: _74  and  _75
REMARK   36  A    between atoms: _78  and  _80
REMARK   37  A    between atoms: _80  and  _81
REMARK   38  A    between atoms: _80  and  _83
REMARK   39  A    between atoms: _86  and  _88
REMARK   40  A    between atoms: _88  and  _89
REMARK   41  A    between atoms: _88  and  _91
REMARK   42  A    between atoms: _91  and  _92
REMARK   43  A    between atoms: _97  and  _99
REMARK   44  A    between atoms: _99  and  _100
REMARK   45  A    between atoms: _99  and  _102
REMARK   46  A    between atoms: _102  and  _103
REMARK   47  A    between atoms: _105  and  _107
REMARK   48  A    between atoms: _107  and  _108
REMARK   49  A    between atoms: _107  and  _110
REMARK   50  A    between atoms: _110  and  _111
REMARK   51  A    between atoms: _111  and  _112
REMARK   52  A    between atoms: _115  and  _117
REMARK   53  A    between atoms: _117  and  _118
REMARK   54  A    between atoms: _117  and  _120
REMARK   55  A    between atoms: _120  and  _121
REMARK   56  A    between atoms: _124  and  _126
REMARK   57  A    between atoms: _126  and  _127
REMARK   58  A    between atoms: _129  and  _131
REMARK   59  A    between atoms: _131  and  _132
REMARK   60  A    between atoms: _131  and  _134
REMARK   61  A    between atoms: _134  and  _135
REMARK   62  A    between atoms: _138  and  _140
REMARK   63  A    between atoms: _149  and  _152
REMARK   64  A    between atoms: _152  and  _153
REMARK   65  A    between atoms: _160  and  _163
REMARK   66  A    between atoms: _163  and  _164
REMARK   67  A    between atoms: _169  and  _172
REMARK   68  A    between atoms: _172  and  _173
REMARK   69  A    between atoms: _178  and  _179
REMARK   70  A    between atoms: _183  and  _186
REMARK   71  A    between atoms: _186  and  _187
REMARK   72  A    between atoms: _187  and  _188
REMARK   73  A    between atoms: _187  and  _189
REMARK   74  A    between atoms: _188  and  CA_239
REMARK   75  A    between atoms: _194  and  _195
REMARK   76  A    between atoms: _201  and  _203
REMARK   77  A    between atoms: _203  and  _204
REMARK   78  A    between atoms: _207  and  _209
REMARK   79  A    between atoms: _209  and  _210
REMARK   80  A    between atoms: _209  and  _212
REMARK   81  A    between atoms: _212  and  _213
REMARK   82  A    between atoms: _213  and  _214
REMARK   83  A    between atoms: _214  and  _215
REMARK   84  A    between atoms: _224  and  _226
REMARK   85  A    between atoms: _226  and  _227
REMARK   86  A    between atoms: _226  and  _229
REMARK   87  A    between atoms: _229  and  _230
REMARK   88  A    between atoms: _233  and  _235
REMARK   89  A    between atoms: _235  and  _236
REMARK                            x       y       z     vdW  Elec       q    Type
REMARK                         _______ _______ _______ _____ _____    ______ ____
ROOT
ATOM      1  O   HOH     1     -43.375   6.850 -39.522  0.00  0.00    +0.000 OA
ENDROOT
TORSDOF 0
REMARK  Name = ../refined-set-2016/2jdp/2jdp_pocket.pdb
REMARK  89 active torsions:
REMARK  status: ('A' for Active; 'I' for Inactive)
REMARK    1  A    between atoms: _1  and  _3
REMARK    2  A    between atoms: _3  and  _4
REMARK    3  A    between atoms: _7  and  _9
REMARK    4  A    between atoms: _9  and  _10
REMARK    5  A    between atoms: _9  and  _12
REMARK    6  A    between atoms: _10  and  _11
REMARK    7  A    between atoms: _10  and  _18
REMARK    8  A    between atoms: _11  and  CA_239
REMARK    9  A    between atoms: _12  and  _13
REMARK   10  A    between atoms: _18  and  _20
REMARK   11  A    between atoms: _20  and  _21
REMARK   12  A    between atoms: _20  and  _23
REMARK   13  A    between atoms: _23  and  _24
REMARK   14  A    between atoms: _26  and  _28
REMARK   15  A    between atoms: _28  and  _29
REMARK   16  A    between atoms: _32  and  _34
REMARK   17  A    between atoms: _34  and  _35
REMARK   18  A    between atoms: _37  and  _39
REMARK   19  A    between atoms: _39  and  _40
REMARK   20  A    between atoms: _39  and  _42
REMARK   21  A    between atoms: _42  and  _43
REMARK   22  A    between atoms: _43  and  _44
REMARK   23  A    between atoms: _49  and  _51
REMARK   24  A    between atoms: _51  and  _52
REMARK   25  A    between atoms: _51  and  _54
REMARK   26  A    between atoms: _54  and  _55
REMARK   27  A    between atoms: _55  and  _56
REMARK   28  A    between atoms: _61  and  _63
REMARK   29  A    between atoms: _63  and  _64
REMARK   30  A    between atoms: _63  and  _66
REMARK   31  A    between atoms: _66  and  _67
REMARK   32  A    between atoms: _69  and  _71
REMARK   33  A    between atoms: _71  and  _72
REMARK   34  A    between atoms: _71  and  _74
REMARK   35  A    between atoms: _74  and  _75
REMARK   36  A    between atoms: _78  and  _80
REMARK   37  A    between atoms: _80  and  _81
REMARK   38  A    between atoms: _80  and  _83
REMARK   39  A    between atoms: _86  and  _88
REMARK   40  A    between atoms: _88  and  _89
REMARK   41  A    between atoms: _88  and  _91
REMARK   42  A    between atoms: _91  and  _92
REMARK   43  A    between atoms: _97  and  _99
REMARK   44  A    between atoms: _99  and  _100
REMARK   45  A    between atoms: _99  and  _102
REMARK   46  A    between atoms: _102  and  _103
REMARK   47  A    between atoms: _105  and  _107
REMARK   48  A    between atoms: _107  and  _108
REMARK   49  A    between atoms: _107  and  _110
REMARK   50  A    between atoms: _110  and  _111
REMARK   51  A    between atoms: _111  and  _112
REMARK   52  A    between atoms: _115  and  _117
REMARK   53  A    between atoms: _117  and  _118
REMARK   54  A    between atoms: _117  and  _120
REMARK   55  A    between atoms: _120  and  _121
REMARK   56  A    between atoms: _124  and  _126
REMARK   57  A    between atoms: _126  and  _127
REMARK   58  A    between atoms: _129  and  _131
REMARK   59  A    between atoms: _131  and  _132
REMARK   60  A    between atoms: _131  and  _134
REMARK   61  A    between atoms: _134  and  _135
REMARK   62  A    between atoms: _138  and  _140
REMARK   63  A    between atoms: _149  and  _152
REMARK   64  A    between atoms: _152  and  _153
REMARK   65  A    between atoms: _160  and  _163
REMARK   66  A    between atoms: _163  and  _164
REMARK   67  A    between atoms: _169  and  _172
REMARK   68  A    between atoms: _172  and  _173
REMARK   69  A    between atoms: _178  and  _179
REMARK   70  A    between atoms: _183  and  _186
REMARK   71  A    between atoms: _186  and  _187
REMARK   72  A    between atoms: _187  and  _188
REMARK   73  A    between atoms: _187  and  _189
REMARK   74  A    between atoms: _188  and  CA_239
REMARK   75  A    between atoms: _194  and  _195
REMARK   76  A    between atoms: _201  and  _203
REMARK   77  A    between atoms: _203  and  _204
REMARK   78  A    between atoms: _207  and  _209
REMARK   79  A    between atoms: _209  and  _210
REMARK   80  A    between atoms: _209  and  _212
REMARK   81  A    between atoms: _212  and  _213
REMARK   82  A    between atoms: _213  and  _214
REMARK   83  A    between atoms: _214  and  _215
REMARK   84  A    between atoms: _224  and  _226
REMARK   85  A    between atoms: _226  and  _227
REMARK   86  A    between atoms: _226  and  _229
REMARK   87  A    between atoms: _229  and  _230
REMARK   88  A    between atoms: _233  and  _235
REMARK   89  A    between atoms: _235  and  _236
REMARK                            x       y       z     vdW  Elec       q    Type
REMARK                         _______ _______ _______ _____ _____    ______ ____
ROOT
ATOM      1  O   HOH     1     -43.132   9.292 -35.007  0.00  0.00    +0.000 OA
ENDROOT
TORSDOF 0
REMARK  Name = ../refined-set-2016/2jdp/2jdp_pocket.pdb
REMARK  89 active torsions:
REMARK  status: ('A' for Active; 'I' for Inactive)
REMARK    1  A    between atoms: _1  and  _3
REMARK    2  A    between atoms: _3  and  _4
REMARK    3  A    between atoms: _7  and  _9
REMARK    4  A    between atoms: _9  and  _10
REMARK    5  A    between atoms: _9  and  _12
REMARK    6  A    between atoms: _10  and  _11
REMARK    7  A    between atoms: _10  and  _18
REMARK    8  A    between atoms: _11  and  CA_239
REMARK    9  A    between atoms: _12  and  _13
REMARK   10  A    between atoms: _18  and  _20
REMARK   11  A    between atoms: _20  and  _21
REMARK   12  A    between atoms: _20  and  _23
REMARK   13  A    between atoms: _23  and  _24
REMARK   14  A    between atoms: _26  and  _28
REMARK   15  A    between atoms: _28  and  _29
REMARK   16  A    between atoms: _32  and  _34
REMARK   17  A    between atoms: _34  and  _35
REMARK   18  A    between atoms: _37  and  _39
REMARK   19  A    between atoms: _39  and  _40
REMARK   20  A    between atoms: _39  and  _42
REMARK   21  A    between atoms: _42  and  _43
REMARK   22  A    between atoms: _43  and  _44
REMARK   23  A    between atoms: _49  and  _51
REMARK   24  A    between atoms: _51  and  _52
REMARK   25  A    between atoms: _51  and  _54
REMARK   26  A    between atoms: _54  and  _55
REMARK   27  A    between atoms: _55  and  _56
REMARK   28  A    between atoms: _61  and  _63
REMARK   29  A    between atoms: _63  and  _64
REMARK   30  A    between atoms: _63  and  _66
REMARK   31  A    between atoms: _66  and  _67
REMARK   32  A    between atoms: _69  and  _71
REMARK   33  A    between atoms: _71  and  _72
REMARK   34  A    between atoms: _71  and  _74
REMARK   35  A    between atoms: _74  and  _75
REMARK   36  A    between atoms: _78  and  _80
REMARK   37  A    between atoms: _80  and  _81
REMARK   38  A    between atoms: _80  and  _83
REMARK   39  A    between atoms: _86  and  _88
REMARK   40  A    between atoms: _88  and  _89
REMARK   41  A    between atoms: _88  and  _91
REMARK   42  A    between atoms: _91  and  _92
REMARK   43  A    between atoms: _97  and  _99
REMARK   44  A    between atoms: _99  and  _100
REMARK   45  A    between atoms: _99  and  _102
REMARK   46  A    between atoms: _102  and  _103
REMARK   47  A    between atoms: _105  and  _107
REMARK   48  A    between atoms: _107  and  _108
REMARK   49  A    between atoms: _107  and  _110
REMARK   50  A    between atoms: _110  and  _111
REMARK   51  A    between atoms: _111  and  _112
REMARK   52  A    between atoms: _115  and  _117
REMARK   53  A    between atoms: _117  and  _118
REMARK   54  A    between atoms: _117  and  _120
REMARK   55  A    between atoms: _120  and  _121
REMARK   56  A    between atoms: _124  and  _126
REMARK   57  A    between atoms: _126  and  _127
REMARK   58  A    between atoms: _129  and  _131
REMARK   59  A    between atoms: _131  and  _132
REMARK   60  A    between atoms: _131  and  _134
REMARK   61  A    between atoms: _134  and  _135
REMARK   62  A    between atoms: _138  and  _140
REMARK   63  A    between atoms: _149  and  _152
REMARK   64  A    between atoms: _152  and  _153
REMARK   65  A    between atoms: _160  and  _163
REMARK   66  A    between atoms: _163  and  _164
REMARK   67  A    between atoms: _169  and  _172
REMARK   68  A    between atoms: _172  and  _173
REMARK   69  A    between atoms: _178  and  _179
REMARK   70  A    between atoms: _183  and  _186
REMARK   71  A    between atoms: _186  and  _187
REMARK   72  A    between atoms: _187  and  _188
REMARK   73  A    between atoms: _187  and  _189
REMARK   74  A    between atoms: _188  and  CA_239
REMARK   75  A    between atoms: _194  and  _195
REMARK   76  A    between atoms: _201  and  _203
REMARK   77  A    between atoms: _203  and  _204
REMARK   78  A    between atoms: _207  and  _209
REMARK   79  A    between atoms: _209  and  _210
REMARK   80  A    between atoms: _209  and  _212
REMARK   81  A    between atoms: _212  and  _213
REMARK   82  A    between atoms: _213  and  _214
REMARK   83  A    between atoms: _214  and  _215
REMARK   84  A    between atoms: _224  and  _226
REMARK   85  A    between atoms: _226  and  _227
REMARK   86  A    between atoms: _226  and  _229
REMARK   87  A    between atoms: _229  and  _230
REMARK   88  A    between atoms: _233  and  _235
REMARK   89  A    between atoms: _235  and  _236
REMARK                            x       y       z     vdW  Elec       q    Type
REMARK                         _______ _______ _______ _____ _____    ______ ____
ROOT
ATOM      1  O   HOH     1     -29.951   4.723 -47.706  0.00  0.00    +0.000 OA
ENDROOT
TORSDOF 0
REMARK  Name = ../refined-set-2016/2jdp/2jdp_pocket.pdb
REMARK  89 active torsions:
REMARK  status: ('A' for Active; 'I' for Inactive)
REMARK    1  A    between atoms: _1  and  _3
REMARK    2  A    between atoms: _3  and  _4
REMARK    3  A    between atoms: _7  and  _9
REMARK    4  A    between atoms: _9  and  _10
REMARK    5  A    between atoms: _9  and  _12
REMARK    6  A    between atoms: _10  and  _11
REMARK    7  A    between atoms: _10  and  _18
REMARK    8  A    between atoms: _11  and  CA_239
REMARK    9  A    between atoms: _12  and  _13
REMARK   10  A    between atoms: _18  and  _20
REMARK   11  A    between atoms: _20  and  _21
REMARK   12  A    between atoms: _20  and  _23
REMARK   13  A    between atoms: _23  and  _24
REMARK   14  A    between atoms: _26  and  _28
REMARK   15  A    between atoms: _28  and  _29
REMARK   16  A    between atoms: _32  and  _34
REMARK   17  A    between atoms: _34  and  _35
REMARK   18  A    between atoms: _37  and  _39
REMARK   19  A    between atoms: _39  and  _40
REMARK   20  A    between atoms: _39  and  _42
REMARK   21  A    between atoms: _42  and  _43
REMARK   22  A    between atoms: _43  and  _44
REMARK   23  A    between atoms: _49  and  _51
REMARK   24  A    between atoms: _51  and  _52
REMARK   25  A    between atoms: _51  and  _54
REMARK   26  A    between atoms: _54  and  _55
REMARK   27  A    between atoms: _55  and  _56
REMARK   28  A    between atoms: _61  and  _63
REMARK   29  A    between atoms: _63  and  _64
REMARK   30  A    between atoms: _63  and  _66
REMARK   31  A    between atoms: _66  and  _67
REMARK   32  A    between atoms: _69  and  _71
REMARK   33  A    between atoms: _71  and  _72
REMARK   34  A    between atoms: _71  and  _74
REMARK   35  A    between atoms: _74  and  _75
REMARK   36  A    between atoms: _78  and  _80
REMARK   37  A    between atoms: _80  and  _81
REMARK   38  A    between atoms: _80  and  _83
REMARK   39  A    between atoms: _86  and  _88
REMARK   40  A    between atoms: _88  and  _89
REMARK   41  A    between atoms: _88  and  _91
REMARK   42  A    between atoms: _91  and  _92
REMARK   43  A    between atoms: _97  and  _99
REMARK   44  A    between atoms: _99  and  _100
REMARK   45  A    between atoms: _99  and  _102
REMARK   46  A    between atoms: _102  and  _103
REMARK   47  A    between atoms: _105  and  _107
REMARK   48  A    between atoms: _107  and  _108
REMARK   49  A    between atoms: _107  and  _110
REMARK   50  A    between atoms: _110  and  _111
REMARK   51  A    between atoms: _111  and  _112
REMARK   52  A    between atoms: _115  and  _117
REMARK   53  A    between atoms: _117  and  _118
REMARK   54  A    between atoms: _117  and  _120
REMARK   55  A    between atoms: _120  and  _121
REMARK   56  A    between atoms: _124  and  _126
REMARK   57  A    between atoms: _126  and  _127
REMARK   58  A    between atoms: _129  and  _131
REMARK   59  A    between atoms: _131  and  _132
REMARK   60  A    between atoms: _131  and  _134
REMARK   61  A    between atoms: _134  and  _135
REMARK   62  A    between atoms: _138  and  _140
REMARK   63  A    between atoms: _149  and  _152
REMARK   64  A    between atoms: _152  and  _153
REMARK   65  A    between atoms: _160  and  _163
REMARK   66  A    between atoms: _163  and  _164
REMARK   67  A    between atoms: _169  and  _172
REMARK   68  A    between atoms: _172  and  _173
REMARK   69  A    between atoms: _178  and  _179
REMARK   70  A    between atoms: _183  and  _186
REMARK   71  A    between atoms: _186  and  _187
REMARK   72  A    between atoms: _187  and  _188
REMARK   73  A    between atoms: _187  and  _189
REMARK   74  A    between atoms: _188  and  CA_239
REMARK   75  A    between atoms: _194  and  _195
REMARK   76  A    between atoms: _201  and  _203
REMARK   77  A    between atoms: _203  and  _204
REMARK   78  A    between atoms: _207  and  _209
REMARK   79  A    between atoms: _209  and  _210
REMARK   80  A    between atoms: _209  and  _212
REMARK   81  A    between atoms: _212  and  _213
REMARK   82  A    between atoms: _213  and  _214
REMARK   83  A    between atoms: _214  and  _215
REMARK   84  A    between atoms: _224  and  _226
REMARK   85  A    between atoms: _226  and  _227
REMARK   86  A    between atoms: _226  and  _229
REMARK   87  A    between atoms: _229  and  _230
REMARK   88  A    between atoms: _233  and  _235
REMARK   89  A    between atoms: _235  and  _236
REMARK                            x       y       z     vdW  Elec       q    Type
REMARK                         _______ _______ _______ _____ _____    ______ ____
ROOT
ATOM      1  O   HOH     1     -26.187   8.253 -45.637  0.00  0.00    +0.000 OA
ENDROOT
TORSDOF 0
REMARK  Name = ../refined-set-2016/2jdp/2jdp_pocket.pdb
REMARK  89 active torsions:
REMARK  status: ('A' for Active; 'I' for Inactive)
REMARK    1  A    between atoms: _1  and  _3
REMARK    2  A    between atoms: _3  and  _4
REMARK    3  A    between atoms: _7  and  _9
REMARK    4  A    between atoms: _9  and  _10
REMARK    5  A    between atoms: _9  and  _12
REMARK    6  A    between atoms: _10  and  _11
REMARK    7  A    between atoms: _10  and  _18
REMARK    8  A    between atoms: _11  and  CA_239
REMARK    9  A    between atoms: _12  and  _13
REMARK   10  A    between atoms: _18  and  _20
REMARK   11  A    between atoms: _20  and  _21
REMARK   12  A    between atoms: _20  and  _23
REMARK   13  A    between atoms: _23  and  _24
REMARK   14  A    between atoms: _26  and  _28
REMARK   15  A    between atoms: _28  and  _29
REMARK   16  A    between atoms: _32  and  _34
REMARK   17  A    between atoms: _34  and  _35
REMARK   18  A    between atoms: _37  and  _39
REMARK   19  A    between atoms: _39  and  _40
REMARK   20  A    between atoms: _39  and  _42
REMARK   21  A    between atoms: _42  and  _43
REMARK   22  A    between atoms: _43  and  _44
REMARK   23  A    between atoms: _49  and  _51
REMARK   24  A    between atoms: _51  and  _52
REMARK   25  A    between atoms: _51  and  _54
REMARK   26  A    between atoms: _54  and  _55
REMARK   27  A    between atoms: _55  and  _56
REMARK   28  A    between atoms: _61  and  _63
REMARK   29  A    between atoms: _63  and  _64
REMARK   30  A    between atoms: _63  and  _66
REMARK   31  A    between atoms: _66  and  _67
REMARK   32  A    between atoms: _69  and  _71
REMARK   33  A    between atoms: _71  and  _72
REMARK   34  A    between atoms: _71  and  _74
REMARK   35  A    between atoms: _74  and  _75
REMARK   36  A    between atoms: _78  and  _80
REMARK   37  A    between atoms: _80  and  _81
REMARK   38  A    between atoms: _80  and  _83
REMARK   39  A    between atoms: _86  and  _88
REMARK   40  A    between atoms: _88  and  _89
REMARK   41  A    between atoms: _88  and  _91
REMARK   42  A    between atoms: _91  and  _92
REMARK   43  A    between atoms: _97  and  _99
REMARK   44  A    between atoms: _99  and  _100
REMARK   45  A    between atoms: _99  and  _102
REMARK   46  A    between atoms: _102  and  _103
REMARK   47  A    between atoms: _105  and  _107
REMARK   48  A    between atoms: _107  and  _108
REMARK   49  A    between atoms: _107  and  _110
REMARK   50  A    between atoms: _110  and  _111
REMARK   51  A    between atoms: _111  and  _112
REMARK   52  A    between atoms: _115  and  _117
REMARK   53  A    between atoms: _117  and  _118
REMARK   54  A    between atoms: _117  and  _120
REMARK   55  A    between atoms: _120  and  _121
REMARK   56  A    between atoms: _124  and  _126
REMARK   57  A    between atoms: _126  and  _127
REMARK   58  A    between atoms: _129  and  _131
REMARK   59  A    between atoms: _131  and  _132
REMARK   60  A    between atoms: _131  and  _134
REMARK   61  A    between atoms: _134  and  _135
REMARK   62  A    between atoms: _138  and  _140
REMARK   63  A    between atoms: _149  and  _152
REMARK   64  A    between atoms: _152  and  _153
REMARK   65  A    between atoms: _160  and  _163
REMARK   66  A    between atoms: _163  and  _164
REMARK   67  A    between atoms: _169  and  _172
REMARK   68  A    between atoms: _172  and  _173
REMARK   69  A    between atoms: _178  and  _179
REMARK   70  A    between atoms: _183  and  _186
REMARK   71  A    between atoms: _186  and  _187
REMARK   72  A    between atoms: _187  and  _188
REMARK   73  A    between atoms: _187  and  _189
REMARK   74  A    between atoms: _188  and  CA_239
REMARK   75  A    between atoms: _194  and  _195
REMARK   76  A    between atoms: _201  and  _203
REMARK   77  A    between atoms: _203  and  _204
REMARK   78  A    between atoms: _207  and  _209
REMARK   79  A    between atoms: _209  and  _210
REMARK   80  A    between atoms: _209  and  _212
REMARK   81  A    between atoms: _212  and  _213
REMARK   82  A    between atoms: _213  and  _214
REMARK   83  A    between atoms: _214  and  _215
REMARK   84  A    between atoms: _224  and  _226
REMARK   85  A    between atoms: _226  and  _227
REMARK   86  A    between atoms: _226  and  _229
REMARK   87  A    between atoms: _229  and  _230
REMARK   88  A    between atoms: _233  and  _235
REMARK   89  A    between atoms: _235  and  _236
REMARK                            x       y       z     vdW  Elec       q    Type
REMARK                         _______ _______ _______ _____ _____    ______ ____
ROOT
ATOM      1  O   HOH     1     -25.046  11.245 -43.281  0.00  0.00    +0.000 OA
ENDROOT
TORSDOF 0
REMARK  Name = ../refined-set-2016/2jdp/2jdp_pocket.pdb
REMARK  89 active torsions:
REMARK  status: ('A' for Active; 'I' for Inactive)
REMARK    1  A    between atoms: _1  and  _3
REMARK    2  A    between atoms: _3  and  _4
REMARK    3  A    between atoms: _7  and  _9
REMARK    4  A    between atoms: _9  and  _10
REMARK    5  A    between atoms: _9  and  _12
REMARK    6  A    between atoms: _10  and  _11
REMARK    7  A    between atoms: _10  and  _18
REMARK    8  A    between atoms: _11  and  CA_239
REMARK    9  A    between atoms: _12  and  _13
REMARK   10  A    between atoms: _18  and  _20
REMARK   11  A    between atoms: _20  and  _21
REMARK   12  A    between atoms: _20  and  _23
REMARK   13  A    between atoms: _23  and  _24
REMARK   14  A    between atoms: _26  and  _28
REMARK   15  A    between atoms: _28  and  _29
REMARK   16  A    between atoms: _32  and  _34
REMARK   17  A    between atoms: _34  and  _35
REMARK   18  A    between atoms: _37  and  _39
REMARK   19  A    between atoms: _39  and  _40
REMARK   20  A    between atoms: _39  and  _42
REMARK   21  A    between atoms: _42  and  _43
REMARK   22  A    between atoms: _43  and  _44
REMARK   23  A    between atoms: _49  and  _51
REMARK   24  A    between atoms: _51  and  _52
REMARK   25  A    between atoms: _51  and  _54
REMARK   26  A    between atoms: _54  and  _55
REMARK   27  A    between atoms: _55  and  _56
REMARK   28  A    between atoms: _61  and  _63
REMARK   29  A    between atoms: _63  and  _64
REMARK   30  A    between atoms: _63  and  _66
REMARK   31  A    between atoms: _66  and  _67
REMARK   32  A    between atoms: _69  and  _71
REMARK   33  A    between atoms: _71  and  _72
REMARK   34  A    between atoms: _71  and  _74
REMARK   35  A    between atoms: _74  and  _75
REMARK   36  A    between atoms: _78  and  _80
REMARK   37  A    between atoms: _80  and  _81
REMARK   38  A    between atoms: _80  and  _83
REMARK   39  A    between atoms: _86  and  _88
REMARK   40  A    between atoms: _88  and  _89
REMARK   41  A    between atoms: _88  and  _91
REMARK   42  A    between atoms: _91  and  _92
REMARK   43  A    between atoms: _97  and  _99
REMARK   44  A    between atoms: _99  and  _100
REMARK   45  A    between atoms: _99  and  _102
REMARK   46  A    between atoms: _102  and  _103
REMARK   47  A    between atoms: _105  and  _107
REMARK   48  A    between atoms: _107  and  _108
REMARK   49  A    between atoms: _107  and  _110
REMARK   50  A    between atoms: _110  and  _111
REMARK   51  A    between atoms: _111  and  _112
REMARK   52  A    between atoms: _115  and  _117
REMARK   53  A    between atoms: _117  and  _118
REMARK   54  A    between atoms: _117  and  _120
REMARK   55  A    between atoms: _120  and  _121
REMARK   56  A    between atoms: _124  and  _126
REMARK   57  A    between atoms: _126  and  _127
REMARK   58  A    between atoms: _129  and  _131
REMARK   59  A    between atoms: _131  and  _132
REMARK   60  A    between atoms: _131  and  _134
REMARK   61  A    between atoms: _134  and  _135
REMARK   62  A    between atoms: _138  and  _140
REMARK   63  A    between atoms: _149  and  _152
REMARK   64  A    between atoms: _152  and  _153
REMARK   65  A    between atoms: _160  and  _163
REMARK   66  A    between atoms: _163  and  _164
REMARK   67  A    between atoms: _169  and  _172
REMARK   68  A    between atoms: _172  and  _173
REMARK   69  A    between atoms: _178  and  _179
REMARK   70  A    between atoms: _183  and  _186
REMARK   71  A    between atoms: _186  and  _187
REMARK   72  A    between atoms: _187  and  _188
REMARK   73  A    between atoms: _187  and  _189
REMARK   74  A    between atoms: _188  and  CA_239
REMARK   75  A    between atoms: _194  and  _195
REMARK   76  A    between atoms: _201  and  _203
REMARK   77  A    between atoms: _203  and  _204
REMARK   78  A    between atoms: _207  and  _209
REMARK   79  A    between atoms: _209  and  _210
REMARK   80  A    between atoms: _209  and  _212
REMARK   81  A    between atoms: _212  and  _213
REMARK   82  A    between atoms: _213  and  _214
REMARK   83  A    between atoms: _214  and  _215
REMARK   84  A    between atoms: _224  and  _226
REMARK   85  A    between atoms: _226  and  _227
REMARK   86  A    between atoms: _226  and  _229
REMARK   87  A    between atoms: _229  and  _230
REMARK   88  A    between atoms: _233  and  _235
REMARK   89  A    between atoms: _235  and  _236
REMARK                            x       y       z     vdW  Elec       q    Type
REMARK                         _______ _______ _______ _____ _____    ______ ____
ROOT
ATOM      1  O   HOH     1     -33.499  11.080 -34.231  0.00  0.00    +0.000 OA
ENDROOT
TORSDOF 0
REMARK  Name = ../refined-set-2016/2jdp/2jdp_pocket.pdb
REMARK  89 active torsions:
REMARK  status: ('A' for Active; 'I' for Inactive)
REMARK    1  A    between atoms: _1  and  _3
REMARK    2  A    between atoms: _3  and  _4
REMARK    3  A    between atoms: _7  and  _9
REMARK    4  A    between atoms: _9  and  _10
REMARK    5  A    between atoms: _9  and  _12
REMARK    6  A    between atoms: _10  and  _11
REMARK    7  A    between atoms: _10  and  _18
REMARK    8  A    between atoms: _11  and  CA_239
REMARK    9  A    between atoms: _12  and  _13
REMARK   10  A    between atoms: _18  and  _20
REMARK   11  A    between atoms: _20  and  _21
REMARK   12  A    between atoms: _20  and  _23
REMARK   13  A    between atoms: _23  and  _24
REMARK   14  A    between atoms: _26  and  _28
REMARK   15  A    between atoms: _28  and  _29
REMARK   16  A    between atoms: _32  and  _34
REMARK   17  A    between atoms: _34  and  _35
REMARK   18  A    between atoms: _37  and  _39
REMARK   19  A    between atoms: _39  and  _40
REMARK   20  A    between atoms: _39  and  _42
REMARK   21  A    between atoms: _42  and  _43
REMARK   22  A    between atoms: _43  and  _44
REMARK   23  A    between atoms: _49  and  _51
REMARK   24  A    between atoms: _51  and  _52
REMARK   25  A    between atoms: _51  and  _54
REMARK   26  A    between atoms: _54  and  _55
REMARK   27  A    between atoms: _55  and  _56
REMARK   28  A    between atoms: _61  and  _63
REMARK   29  A    between atoms: _63  and  _64
REMARK   30  A    between atoms: _63  and  _66
REMARK   31  A    between atoms: _66  and  _67
REMARK   32  A    between atoms: _69  and  _71
REMARK   33  A    between atoms: _71  and  _72
REMARK   34  A    between atoms: _71  and  _74
REMARK   35  A    between atoms: _74  and  _75
REMARK   36  A    between atoms: _78  and  _80
REMARK   37  A    between atoms: _80  and  _81
REMARK   38  A    between atoms: _80  and  _83
REMARK   39  A    between atoms: _86  and  _88
REMARK   40  A    between atoms: _88  and  _89
REMARK   41  A    between atoms: _88  and  _91
REMARK   42  A    between atoms: _91  and  _92
REMARK   43  A    between atoms: _97  and  _99
REMARK   44  A    between atoms: _99  and  _100
REMARK   45  A    between atoms: _99  and  _102
REMARK   46  A    between atoms: _102  and  _103
REMARK   47  A    between atoms: _105  and  _107
REMARK   48  A    between atoms: _107  and  _108
REMARK   49  A    between atoms: _107  and  _110
REMARK   50  A    between atoms: _110  and  _111
REMARK   51  A    between atoms: _111  and  _112
REMARK   52  A    between atoms: _115  and  _117
REMARK   53  A    between atoms: _117  and  _118
REMARK   54  A    between atoms: _117  and  _120
REMARK   55  A    between atoms: _120  and  _121
REMARK   56  A    between atoms: _124  and  _126
REMARK   57  A    between atoms: _126  and  _127
REMARK   58  A    between atoms: _129  and  _131
REMARK   59  A    between atoms: _131  and  _132
REMARK   60  A    between atoms: _131  and  _134
REMARK   61  A    between atoms: _134  and  _135
REMARK   62  A    between atoms: _138  and  _140
REMARK   63  A    between atoms: _149  and  _152
REMARK   64  A    between atoms: _152  and  _153
REMARK   65  A    between atoms: _160  and  _163
REMARK   66  A    between atoms: _163  and  _164
REMARK   67  A    between atoms: _169  and  _172
REMARK   68  A    between atoms: _172  and  _173
REMARK   69  A    between atoms: _178  and  _179
REMARK   70  A    between atoms: _183  and  _186
REMARK   71  A    between atoms: _186  and  _187
REMARK   72  A    between atoms: _187  and  _188
REMARK   73  A    between atoms: _187  and  _189
REMARK   74  A    between atoms: _188  and  CA_239
REMARK   75  A    between atoms: _194  and  _195
REMARK   76  A    between atoms: _201  and  _203
REMARK   77  A    between atoms: _203  and  _204
REMARK   78  A    between atoms: _207  and  _209
REMARK   79  A    between atoms: _209  and  _210
REMARK   80  A    between atoms: _209  and  _212
REMARK   81  A    between atoms: _212  and  _213
REMARK   82  A    between atoms: _213  and  _214
REMARK   83  A    between atoms: _214  and  _215
REMARK   84  A    between atoms: _224  and  _226
REMARK   85  A    between atoms: _226  and  _227
REMARK   86  A    between atoms: _226  and  _229
REMARK   87  A    between atoms: _229  and  _230
REMARK   88  A    between atoms: _233  and  _235
REMARK   89  A    between atoms: _235  and  _236
REMARK                            x       y       z     vdW  Elec       q    Type
REMARK                         _______ _______ _______ _____ _____    ______ ____
ROOT
ATOM      1  O   HOH     1     -31.711  11.308 -42.860  0.00  0.00    +0.000 OA
ENDROOT
TORSDOF 0
REMARK  Name = ../refined-set-2016/2jdp/2jdp_pocket.pdb
REMARK  89 active torsions:
REMARK  status: ('A' for Active; 'I' for Inactive)
REMARK    1  A    between atoms: _1  and  _3
REMARK    2  A    between atoms: _3  and  _4
REMARK    3  A    between atoms: _7  and  _9
REMARK    4  A    between atoms: _9  and  _10
REMARK    5  A    between atoms: _9  and  _12
REMARK    6  A    between atoms: _10  and  _11
REMARK    7  A    between atoms: _10  and  _18
REMARK    8  A    between atoms: _11  and  CA_239
REMARK    9  A    between atoms: _12  and  _13
REMARK   10  A    between atoms: _18  and  _20
REMARK   11  A    between atoms: _20  and  _21
REMARK   12  A    between atoms: _20  and  _23
REMARK   13  A    between atoms: _23  and  _24
REMARK   14  A    between atoms: _26  and  _28
REMARK   15  A    between atoms: _28  and  _29
REMARK   16  A    between atoms: _32  and  _34
REMARK   17  A    between atoms: _34  and  _35
REMARK   18  A    between atoms: _37  and  _39
REMARK   19  A    between atoms: _39  and  _40
REMARK   20  A    between atoms: _39  and  _42
REMARK   21  A    between atoms: _42  and  _43
REMARK   22  A    between atoms: _43  and  _44
REMARK   23  A    between atoms: _49  and  _51
REMARK   24  A    between atoms: _51  and  _52
REMARK   25  A    between atoms: _51  and  _54
REMARK   26  A    between atoms: _54  and  _55
REMARK   27  A    between atoms: _55  and  _56
REMARK   28  A    between atoms: _61  and  _63
REMARK   29  A    between atoms: _63  and  _64
REMARK   30  A    between atoms: _63  and  _66
REMARK   31  A    between atoms: _66  and  _67
REMARK   32  A    between atoms: _69  and  _71
REMARK   33  A    between atoms: _71  and  _72
REMARK   34  A    between atoms: _71  and  _74
REMARK   35  A    between atoms: _74  and  _75
REMARK   36  A    between atoms: _78  and  _80
REMARK   37  A    between atoms: _80  and  _81
REMARK   38  A    between atoms: _80  and  _83
REMARK   39  A    between atoms: _86  and  _88
REMARK   40  A    between atoms: _88  and  _89
REMARK   41  A    between atoms: _88  and  _91
REMARK   42  A    between atoms: _91  and  _92
REMARK   43  A    between atoms: _97  and  _99
REMARK   44  A    between atoms: _99  and  _100
REMARK   45  A    between atoms: _99  and  _102
REMARK   46  A    between atoms: _102  and  _103
REMARK   47  A    between atoms: _105  and  _107
REMARK   48  A    between atoms: _107  and  _108
REMARK   49  A    between atoms: _107  and  _110
REMARK   50  A    between atoms: _110  and  _111
REMARK   51  A    between atoms: _111  and  _112
REMARK   52  A    between atoms: _115  and  _117
REMARK   53  A    between atoms: _117  and  _118
REMARK   54  A    between atoms: _117  and  _120
REMARK   55  A    between atoms: _120  and  _121
REMARK   56  A    between atoms: _124  and  _126
REMARK   57  A    between atoms: _126  and  _127
REMARK   58  A    between atoms: _129  and  _131
REMARK   59  A    between atoms: _131  and  _132
REMARK   60  A    between atoms: _131  and  _134
REMARK   61  A    between atoms: _134  and  _135
REMARK   62  A    between atoms: _138  and  _140
REMARK   63  A    between atoms: _149  and  _152
REMARK   64  A    between atoms: _152  and  _153
REMARK   65  A    between atoms: _160  and  _163
REMARK   66  A    between atoms: _163  and  _164
REMARK   67  A    between atoms: _169  and  _172
REMARK   68  A    between atoms: _172  and  _173
REMARK   69  A    between atoms: _178  and  _179
REMARK   70  A    between atoms: _183  and  _186
REMARK   71  A    between atoms: _186  and  _187
REMARK   72  A    between atoms: _187  and  _188
REMARK   73  A    between atoms: _187  and  _189
REMARK   74  A    between atoms: _188  and  CA_239
REMARK   75  A    between atoms: _194  and  _195
REMARK   76  A    between atoms: _201  and  _203
REMARK   77  A    between atoms: _203  and  _204
REMARK   78  A    between atoms: _207  and  _209
REMARK   79  A    between atoms: _209  and  _210
REMARK   80  A    between atoms: _209  and  _212
REMARK   81  A    between atoms: _212  and  _213
REMARK   82  A    between atoms: _213  and  _214
REMARK   83  A    between atoms: _214  and  _215
REMARK   84  A    between atoms: _224  and  _226
REMARK   85  A    between atoms: _226  and  _227
REMARK   86  A    between atoms: _226  and  _229
REMARK   87  A    between atoms: _229  and  _230
REMARK   88  A    between atoms: _233  and  _235
REMARK   89  A    between atoms: _235  and  _236
REMARK                            x       y       z     vdW  Elec       q    Type
REMARK                         _______ _______ _______ _____ _____    ______ ____
ROOT
ATOM      1  O   HOH     1     -40.726  11.340 -39.155  0.00  0.00    +0.000 OA
ENDROOT
TORSDOF 0
REMARK  Name = ../refined-set-2016/2jdp/2jdp_pocket.pdb
REMARK  89 active torsions:
REMARK  status: ('A' for Active; 'I' for Inactive)
REMARK    1  A    between atoms: _1  and  _3
REMARK    2  A    between atoms: _3  and  _4
REMARK    3  A    between atoms: _7  and  _9
REMARK    4  A    between atoms: _9  and  _10
REMARK    5  A    between atoms: _9  and  _12
REMARK    6  A    between atoms: _10  and  _11
REMARK    7  A    between atoms: _10  and  _18
REMARK    8  A    between atoms: _11  and  CA_239
REMARK    9  A    between atoms: _12  and  _13
REMARK   10  A    between atoms: _18  and  _20
REMARK   11  A    between atoms: _20  and  _21
REMARK   12  A    between atoms: _20  and  _23
REMARK   13  A    between atoms: _23  and  _24
REMARK   14  A    between atoms: _26  and  _28
REMARK   15  A    between atoms: _28  and  _29
REMARK   16  A    between atoms: _32  and  _34
REMARK   17  A    between atoms: _34  and  _35
REMARK   18  A    between atoms: _37  and  _39
REMARK   19  A    between atoms: _39  and  _40
REMARK   20  A    between atoms: _39  and  _42
REMARK   21  A    between atoms: _42  and  _43
REMARK   22  A    between atoms: _43  and  _44
REMARK   23  A    between atoms: _49  and  _51
REMARK   24  A    between atoms: _51  and  _52
REMARK   25  A    between atoms: _51  and  _54
REMARK   26  A    between atoms: _54  and  _55
REMARK   27  A    between atoms: _55  and  _56
REMARK   28  A    between atoms: _61  and  _63
REMARK   29  A    between atoms: _63  and  _64
REMARK   30  A    between atoms: _63  and  _66
REMARK   31  A    between atoms: _66  and  _67
REMARK   32  A    between atoms: _69  and  _71
REMARK   33  A    between atoms: _71  and  _72
REMARK   34  A    between atoms: _71  and  _74
REMARK   35  A    between atoms: _74  and  _75
REMARK   36  A    between atoms: _78  and  _80
REMARK   37  A    between atoms: _80  and  _81
REMARK   38  A    between atoms: _80  and  _83
REMARK   39  A    between atoms: _86  and  _88
REMARK   40  A    between atoms: _88  and  _89
REMARK   41  A    between atoms: _88  and  _91
REMARK   42  A    between atoms: _91  and  _92
REMARK   43  A    between atoms: _97  and  _99
REMARK   44  A    between atoms: _99  and  _100
REMARK   45  A    between atoms: _99  and  _102
REMARK   46  A    between atoms: _102  and  _103
REMARK   47  A    between atoms: _105  and  _107
REMARK   48  A    between atoms: _107  and  _108
REMARK   49  A    between atoms: _107  and  _110
REMARK   50  A    between atoms: _110  and  _111
REMARK   51  A    between atoms: _111  and  _112
REMARK   52  A    between atoms: _115  and  _117
REMARK   53  A    between atoms: _117  and  _118
REMARK   54  A    between atoms: _117  and  _120
REMARK   55  A    between atoms: _120  and  _121
REMARK   56  A    between atoms: _124  and  _126
REMARK   57  A    between atoms: _126  and  _127
REMARK   58  A    between atoms: _129  and  _131
REMARK   59  A    between atoms: _131  and  _132
REMARK   60  A    between atoms: _131  and  _134
REMARK   61  A    between atoms: _134  and  _135
REMARK   62  A    between atoms: _138  and  _140
REMARK   63  A    between atoms: _149  and  _152
REMARK   64  A    between atoms: _152  and  _153
REMARK   65  A    between atoms: _160  and  _163
REMARK   66  A    between atoms: _163  and  _164
REMARK   67  A    between atoms: _169  and  _172
REMARK   68  A    between atoms: _172  and  _173
REMARK   69  A    between atoms: _178  and  _179
REMARK   70  A    between atoms: _183  and  _186
REMARK   71  A    between atoms: _186  and  _187
REMARK   72  A    between atoms: _187  and  _188
REMARK   73  A    between atoms: _187  and  _189
REMARK   74  A    between atoms: _188  and  CA_239
REMARK   75  A    between atoms: _194  and  _195
REMARK   76  A    between atoms: _201  and  _203
REMARK   77  A    between atoms: _203  and  _204
REMARK   78  A    between atoms: _207  and  _209
REMARK   79  A    between atoms: _209  and  _210
REMARK   80  A    between atoms: _209  and  _212
REMARK   81  A    between atoms: _212  and  _213
REMARK   82  A    between atoms: _213  and  _214
REMARK   83  A    between atoms: _214  and  _215
REMARK   84  A    between atoms: _224  and  _226
REMARK   85  A    between atoms: _226  and  _227
REMARK   86  A    between atoms: _226  and  _229
REMARK   87  A    between atoms: _229  and  _230
REMARK   88  A    between atoms: _233  and  _235
REMARK   89  A    between atoms: _235  and  _236
REMARK                            x       y       z     vdW  Elec       q    Type
REMARK                         _______ _______ _______ _____ _____    ______ ____
ROOT
ATOM      1  O   HOH     1     -39.213  10.902 -36.942  0.00  0.00    +0.000 OA
ENDROOT
TORSDOF 0
