REMARK  Name = ../refined-set-2016/1i5r/1i5r_pocket.pdb
REMARK  336 active torsions:
REMARK  status: ('A' for Active; 'I' for Inactive)
REMARK    1  A    between atoms: _1  and  _3
REMARK    2  A    between atoms: _3  and  _4
REMARK    3  A    between atoms: _3  and  _6
REMARK    4  A    between atoms: _6  and  _7
REMARK    5  A    between atoms: _10  and  _12
REMARK    6  A    between atoms: _12  and  _13
REMARK    7  A    between atoms: _12  and  _15
REMARK    8  A    between atoms: _15  and  _16
REMARK    9  A    between atoms: _19  and  _21
REMARK   10  A    between atoms: _21  and  _22
REMARK   11  A    between atoms: _24  and  _26
REMARK   12  A    between atoms: _26  and  _27
REMARK   13  A    between atoms: _26  and  _29
REMARK   14  A    between atoms: _31  and  _33
REMARK   15  A    between atoms: _33  and  _34
REMARK   16  A    between atoms: _33  and  _36
REMARK   17  A    between atoms: _36  and  _37
REMARK   18  A    between atoms: _39  and  _41
REMARK   19  A    between atoms: _41  and  _42
REMARK   20  A    between atoms: _41  and  _44
REMARK   21  A    between atoms: _44  and  _45
REMARK   22  A    between atoms: _47  and  _49
REMARK   23  A    between atoms: _49  and  _50
REMARK   24  A    between atoms: _52  and  _54
REMARK   25  A    between atoms: _54  and  _55
REMARK   26  A    between atoms: _54  and  _57
REMARK   27  A    between atoms: _57  and  _58
REMARK   28  A    between atoms: _61  and  _63
REMARK   29  A    between atoms: _63  and  _64
REMARK   30  A    between atoms: _66  and  _68
REMARK   31  A    between atoms: _68  and  _69
REMARK   32  A    between atoms: _68  and  _71
REMARK   33  A    between atoms: _71  and  _72
REMARK   34  A    between atoms: _75  and  _77
REMARK   35  A    between atoms: _77  and  _78
REMARK   36  A    between atoms: _77  and  _80
REMARK   37  A    between atoms: _80  and  _81
REMARK   38  A    between atoms: _86  and  _88
REMARK   39  A    between atoms: _88  and  _89
REMARK   40  A    between atoms: _88  and  _91
REMARK   41  A    between atoms: _91  and  _92
REMARK   42  A    between atoms: _95  and  _97
REMARK   43  A    between atoms: _97  and  _98
REMARK   44  A    between atoms: _97  and  _100
REMARK   45  A    between atoms: _100  and  _101
REMARK   46  A    between atoms: _104  and  _106
REMARK   47  A    between atoms: _106  and  _107
REMARK   48  A    between atoms: _106  and  _109
REMARK   49  A    between atoms: _109  and  _110
REMARK   50  A    between atoms: _110  and  _111
REMARK   51  A    between atoms: _111  and  _112
REMARK   52  A    between atoms: _121  and  _123
REMARK   53  A    between atoms: _123  and  _124
REMARK   54  A    between atoms: _123  and  _126
REMARK   55  A    between atoms: _126  and  _127
REMARK   56  A    between atoms: _130  and  _132
REMARK   57  A    between atoms: _132  and  _133
REMARK   58  A    between atoms: _132  and  _135
REMARK   59  A    between atoms: _135  and  _136
REMARK   60  A    between atoms: _139  and  _141
REMARK   61  A    between atoms: _141  and  _142
REMARK   62  A    between atoms: _141  and  _144
REMARK   63  A    between atoms: _144  and  _145
REMARK   64  A    between atoms: _145  and  _146
REMARK   65  A    between atoms: _146  and  _147
REMARK   66  A    between atoms: _156  and  _158
REMARK   67  A    between atoms: _158  and  _159
REMARK   68  A    between atoms: _158  and  _161
REMARK   69  A    between atoms: _161  and  _162
REMARK   70  A    between atoms: _165  and  _167
REMARK   71  A    between atoms: _167  and  _168
REMARK   72  A    between atoms: _167  and  _170
REMARK   73  A    between atoms: _170  and  _171
REMARK   74  A    between atoms: _171  and  _172
REMARK   75  A    between atoms: _177  and  _179
REMARK   76  A    between atoms: _179  and  _180
REMARK   77  A    between atoms: _179  and  _182
REMARK   78  A    between atoms: _182  and  _183
REMARK   79  A    between atoms: _186  and  _188
REMARK   80  A    between atoms: _188  and  _189
REMARK   81  A    between atoms: _188  and  _191
REMARK   82  A    between atoms: _191  and  _192
REMARK   83  A    between atoms: _195  and  _197
REMARK   84  A    between atoms: _197  and  _198
REMARK   85  A    between atoms: _197  and  _200
REMARK   86  A    between atoms: _203  and  _205
REMARK   87  A    between atoms: _205  and  _206
REMARK   88  A    between atoms: _205  and  _208
REMARK   89  A    between atoms: _208  and  _209
REMARK   90  A    between atoms: _209  and  _210
REMARK   91  A    between atoms: _210  and  _211
REMARK   92  A    between atoms: _220  and  _222
REMARK   93  A    between atoms: _222  and  _223
REMARK   94  A    between atoms: _222  and  _225
REMARK   95  A    between atoms: _225  and  _226
REMARK   96  A    between atoms: _229  and  _231
REMARK   97  A    between atoms: _231  and  _232
REMARK   98  A    between atoms: _231  and  _234
REMARK   99  A    between atoms: _234  and  _235
REMARK  100  A    between atoms: _237  and  _239
REMARK  101  A    between atoms: _239  and  _240
REMARK  102  A    between atoms: _239  and  _242
REMARK  103  A    between atoms: _245  and  _247
REMARK  104  A    between atoms: _247  and  _248
REMARK  105  A    between atoms: _247  and  _250
REMARK  106  A    between atoms: _252  and  _254
REMARK  107  A    between atoms: _254  and  _255
REMARK  108  A    between atoms: _254  and  _257
REMARK  109  A    between atoms: _257  and  _258
REMARK  110  A    between atoms: _263  and  _265
REMARK  111  A    between atoms: _265  and  _266
REMARK  112  A    between atoms: _269  and  _271
REMARK  113  A    between atoms: _271  and  _272
REMARK  114  A    between atoms: _274  and  _276
REMARK  115  A    between atoms: _276  and  _277
REMARK  116  A    between atoms: _276  and  _279
REMARK  117  A    between atoms: _279  and  _280
REMARK  118  A    between atoms: _283  and  _285
REMARK  119  A    between atoms: _285  and  _286
REMARK  120  A    between atoms: _288  and  _290
REMARK  121  A    between atoms: _290  and  _291
REMARK  122  A    between atoms: _290  and  _293
REMARK  123  A    between atoms: _293  and  _294
REMARK  124  A    between atoms: _297  and  _299
REMARK  125  A    between atoms: _299  and  _300
REMARK  126  A    between atoms: _299  and  _302
REMARK  127  A    between atoms: _302  and  _303
REMARK  128  A    between atoms: _306  and  _308
REMARK  129  A    between atoms: _308  and  _309
REMARK  130  A    between atoms: _308  and  _311
REMARK  131  A    between atoms: _311  and  _312
REMARK  132  A    between atoms: _314  and  _316
REMARK  133  A    between atoms: _316  and  _317
REMARK  134  A    between atoms: _316  and  _319
REMARK  135  A    between atoms: _319  and  _320
REMARK  136  A    between atoms: _323  and  _325
REMARK  137  A    between atoms: _325  and  _326
REMARK  138  A    between atoms: _325  and  _328
REMARK  139  A    between atoms: _331  and  _333
REMARK  140  A    between atoms: _333  and  _334
REMARK  141  A    between atoms: _333  and  _336
REMARK  142  A    between atoms: _336  and  _337
REMARK  143  A    between atoms: _342  and  _344
REMARK  144  A    between atoms: _344  and  _345
REMARK  145  A    between atoms: _347  and  _349
REMARK  146  A    between atoms: _349  and  _350
REMARK  147  A    between atoms: _349  and  _352
REMARK  148  A    between atoms: _352  and  _353
REMARK  149  A    between atoms: _353  and  _354
REMARK  150  A    between atoms: _354  and  _355
REMARK  151  A    between atoms: _364  and  _366
REMARK  152  A    between atoms: _366  and  _367
REMARK  153  A    between atoms: _366  and  _369
REMARK  154  A    between atoms: _369  and  _370
REMARK  155  A    between atoms: _370  and  _371
REMARK  156  A    between atoms: _373  and  _375
REMARK  157  A    between atoms: _375  and  _376
REMARK  158  A    between atoms: _375  and  _378
REMARK  159  A    between atoms: _378  and  _379
REMARK  160  A    between atoms: _382  and  _384
REMARK  161  A    between atoms: _384  and  _385
REMARK  162  A    between atoms: _387  and  _389
REMARK  163  A    between atoms: _389  and  _390
REMARK  164  A    between atoms: _389  and  _392
REMARK  165  A    between atoms: _392  and  _393
REMARK  166  A    between atoms: _395  and  _397
REMARK  167  A    between atoms: _397  and  _398
REMARK  168  A    between atoms: _397  and  _400
REMARK  169  A    between atoms: _403  and  _405
REMARK  170  A    between atoms: _405  and  _406
REMARK  171  A    between atoms: _408  and  _410
REMARK  172  A    between atoms: _410  and  _411
REMARK  173  A    between atoms: _413  and  _415
REMARK  174  A    between atoms: _415  and  _416
REMARK  175  A    between atoms: _415  and  _418
REMARK  176  A    between atoms: _418  and  _419
REMARK  177  A    between atoms: _422  and  _424
REMARK  178  A    between atoms: _424  and  _425
REMARK  179  A    between atoms: _424  and  _427
REMARK  180  A    between atoms: _427  and  _428
REMARK  181  A    between atoms: _428  and  _429
REMARK  182  A    between atoms: _431  and  _433
REMARK  183  A    between atoms: _433  and  _434
REMARK  184  A    between atoms: _436  and  _438
REMARK  185  A    between atoms: _438  and  _439
REMARK  186  A    between atoms: _438  and  _441
REMARK  187  A    between atoms: _441  and  _442
REMARK  188  A    between atoms: _446  and  _447
REMARK  189  A    between atoms: _452  and  _454
REMARK  190  A    between atoms: _454  and  _455
REMARK  191  A    between atoms: _454  and  _457
REMARK  192  A    between atoms: _457  and  _458
REMARK  193  A    between atoms: _463  and  _465
REMARK  194  A    between atoms: _465  and  _466
REMARK  195  A    between atoms: _465  and  _468
REMARK  196  A    between atoms: _468  and  _469
REMARK  197  A    between atoms: _474  and  _475
REMARK  198  A    between atoms: _477  and  _479
REMARK  199  A    between atoms: _479  and  _480
REMARK  200  A    between atoms: _479  and  _482
REMARK  201  A    between atoms: _484  and  _486
REMARK  202  A    between atoms: _486  and  _487
REMARK  203  A    between atoms: _486  and  _489
REMARK  204  A    between atoms: _489  and  _490
REMARK  205  A    between atoms: _490  and  _491
REMARK  206  A    between atoms: _491  and  _492
REMARK  207  A    between atoms: _492  and  _493
REMARK  208  A    between atoms: _497  and  _499
REMARK  209  A    between atoms: _499  and  _500
REMARK  210  A    between atoms: _499  and  _502
REMARK  211  A    between atoms: _502  and  _503
REMARK  212  A    between atoms: _503  and  _504
REMARK  213  A    between atoms: _507  and  _509
REMARK  214  A    between atoms: _509  and  _510
REMARK  215  A    between atoms: _509  and  _512
REMARK  216  A    between atoms: _514  and  _516
REMARK  217  A    between atoms: _516  and  _517
REMARK  218  A    between atoms: _520  and  _521
REMARK  219  A    between atoms: _526  and  _528
REMARK  220  A    between atoms: _528  and  _529
REMARK  221  A    between atoms: _528  and  _531
REMARK  222  A    between atoms: _534  and  _536
REMARK  223  A    between atoms: _536  and  _537
REMARK  224  A    between atoms: _536  and  _539
REMARK  225  A    between atoms: _539  and  _540
REMARK  226  A    between atoms: _543  and  _545
REMARK  227  A    between atoms: _545  and  _546
REMARK  228  A    between atoms: _545  and  _548
REMARK  229  A    between atoms: _548  and  _549
REMARK  230  A    between atoms: _555  and  _557
REMARK  231  A    between atoms: _557  and  _558
REMARK  232  A    between atoms: _557  and  _560
REMARK  233  A    between atoms: _560  and  _561
REMARK  234  A    between atoms: _561  and  _562
REMARK  235  A    between atoms: _564  and  _566
REMARK  236  A    between atoms: _566  and  _567
REMARK  237  A    between atoms: _566  and  _569
REMARK  238  A    between atoms: _569  and  _570
REMARK  239  A    between atoms: _570  and  _571
REMARK  240  A    between atoms: _574  and  _576
REMARK  241  A    between atoms: _576  and  _577
REMARK  242  A    between atoms: _576  and  _579
REMARK  243  A    between atoms: _579  and  _580
REMARK  244  A    between atoms: _580  and  _581
REMARK  245  A    between atoms: _581  and  _582
REMARK  246  A    between atoms: _582  and  _583
REMARK  247  A    between atoms: _587  and  _589
REMARK  248  A    between atoms: _589  and  _590
REMARK  249  A    between atoms: _589  and  _592
REMARK  250  A    between atoms: _592  and  _593
REMARK  251  A    between atoms: _598  and  _599
REMARK  252  A    between atoms: _601  and  _603
REMARK  253  A    between atoms: _603  and  _604
REMARK  254  A    between atoms: _603  and  _606
REMARK  255  A    between atoms: _606  and  _607
REMARK  256  A    between atoms: _610  and  _612
REMARK  257  A    between atoms: _612  and  _613
REMARK  258  A    between atoms: _612  and  _615
REMARK  259  A    between atoms: _615  and  _616
REMARK  260  A    between atoms: _621  and  _623
REMARK  261  A    between atoms: _623  and  _624
REMARK  262  A    between atoms: _623  and  _626
REMARK  263  A    between atoms: _626  and  _627
REMARK  264  A    between atoms: _629  and  _631
REMARK  265  A    between atoms: _631  and  _632
REMARK  266  A    between atoms: _631  and  _634
REMARK  267  A    between atoms: _634  and  _635
REMARK  268  A    between atoms: _635  and  _636
REMARK  269  A    between atoms: _636  and  _637
REMARK  270  A    between atoms: _637  and  _638
REMARK  271  A    between atoms: _642  and  _644
REMARK  272  A    between atoms: _644  and  _645
REMARK  273  A    between atoms: _644  and  _647
REMARK  274  A    between atoms: _647  and  _648
REMARK  275  A    between atoms: _648  and  _649
REMARK  276  A    between atoms: _654  and  _656
REMARK  277  A    between atoms: _656  and  _657
REMARK  278  A    between atoms: _656  and  _659
REMARK  279  A    between atoms: _662  and  _664
REMARK  280  A    between atoms: _664  and  _665
REMARK  281  A    between atoms: _664  and  _667
REMARK  282  A    between atoms: _667  and  _668
REMARK  283  A    between atoms: _674  and  _676
REMARK  284  A    between atoms: _676  and  _677
REMARK  285  A    between atoms: _680  and  _682
REMARK  286  A    between atoms: _682  and  _683
REMARK  287  A    between atoms: _682  and  _685
REMARK  288  A    between atoms: _685  and  _686
REMARK  289  A    between atoms: _689  and  _691
REMARK  290  A    between atoms: _691  and  _692
REMARK  291  A    between atoms: _691  and  _694
REMARK  292  A    between atoms: _694  and  _695
REMARK  293  A    between atoms: _695  and  _696
REMARK  294  A    between atoms: _696  and  _697
REMARK  295  A    between atoms: _706  and  _708
REMARK  296  A    between atoms: _708  and  _709
REMARK  297  A    between atoms: _708  and  _711
REMARK  298  A    between atoms: _711  and  _712
REMARK  299  A    between atoms: _718  and  _720
REMARK  300  A    between atoms: _720  and  _721
REMARK  301  A    between atoms: _720  and  _723
REMARK  302  A    between atoms: _723  and  _724
REMARK  303  A    between atoms: _727  and  _729
REMARK  304  A    between atoms: _729  and  _730
REMARK  305  A    between atoms: _729  and  _732
REMARK  306  A    between atoms: _732  and  _733
REMARK  307  A    between atoms: _738  and  _739
REMARK  308  A    between atoms: _741  and  _743
REMARK  309  A    between atoms: _743  and  _744
REMARK  310  A    between atoms: _747  and  _749
REMARK  311  A    between atoms: _749  and  _750
REMARK  312  A    between atoms: _749  and  _752
REMARK  313  A    between atoms: _752  and  _753
REMARK  314  A    between atoms: _753  and  _754
REMARK  315  A    between atoms: _756  and  _758
REMARK  316  A    between atoms: _758  and  _759
REMARK  317  A    between atoms: _758  and  _761
REMARK  318  A    between atoms: _761  and  _762
REMARK  319  A    between atoms: _767  and  _769
REMARK  320  A    between atoms: _769  and  _770
REMARK  321  A    between atoms: _769  and  _772
REMARK  322  A    between atoms: _772  and  _773
REMARK  323  A    between atoms: _773  and  _774
REMARK  324  A    between atoms: _774  and  _775
REMARK  325  A    between atoms: _784  and  _786
REMARK  326  A    between atoms: _786  and  _787
REMARK  327  A    between atoms: _786  and  _789
REMARK  328  A    between atoms: _789  and  _790
REMARK  329  A    between atoms: _790  and  _791
REMARK  330  A    between atoms: _794  and  _796
REMARK  331  A    between atoms: _796  and  _797
REMARK  332  A    between atoms: _796  and  _799
REMARK  333  A    between atoms: _802  and  _804
REMARK  334  A    between atoms: _804  and  _805
REMARK  335  A    between atoms: _804  and  _807
REMARK  336  A    between atoms: _807  and  _808
REMARK                            x       y       z     vdW  Elec       q    Type
REMARK                         _______ _______ _______ _____ _____    ______ ____
ROOT
ATOM      1  CA  SER A   6      22.580  -3.676  -4.337  0.00  0.00    +0.178 C 
ENDROOT
BRANCH   1   2
ATOM      2  C   SER A   6      21.991  -2.329  -3.957  0.00  0.00    +0.243 C 
ATOM      3  O   SER A   6      21.379  -2.191  -2.901  0.00  0.00    -0.273 OA
ATOM      4  N   GLY A   7      22.257  -1.386  -4.843  0.00  0.00    -0.295 N 
ATOM      5  H   GLY A   7      22.880  -1.603  -5.647  0.00  0.00    +0.150 HD
BRANCH   4   6
ATOM      6  CA  GLY A   7      21.700  -0.063  -4.717  0.00  0.00    +0.176 C 
BRANCH   6   7
ATOM      7  C   GLY A   7      21.925   0.593  -3.376  0.00  0.00    +0.243 C 
ATOM      8  O   GLY A   7      22.958   0.518  -2.724  0.00  0.00    -0.273 OA
ATOM      9  N   ILE A   8      20.857   1.271  -2.949  0.00  0.00    -0.297 N 
ATOM     10  H   ILE A   8      19.972   1.243  -3.495  0.00  0.00    +0.150 HD
BRANCH   9  11
ATOM     11  CA  ILE A   8      20.929   2.048  -1.723  0.00  0.00    +0.149 C 
BRANCH  11  12
ATOM     12  C   ILE A   8      21.373   1.228  -0.526  0.00  0.00    +0.241 C 
ATOM     13  O   ILE A   8      22.210   1.669   0.250  0.00  0.00    -0.273 OA
ATOM     14  N   GLY A   9      20.765   0.058  -0.350  0.00  0.00    -0.295 N 
ATOM     15  H   GLY A   9      20.074  -0.274  -1.052  0.00  0.00    +0.150 HD
BRANCH  14  16
ATOM     16  CA  GLY A   9      21.058  -0.759   0.814  0.00  0.00    +0.176 C 
BRANCH  16  17
ATOM     17  C   GLY A   9      22.539  -1.128   0.829  0.00  0.00    +0.243 C 
ATOM     18  O   GLY A   9      23.166  -1.026   1.874  0.00  0.00    -0.273 OA
ATOM     19  N   LEU A  10      23.032  -1.564  -0.320  0.00  0.00    -0.297 N 
ATOM     20  H   LEU A  10      22.426  -1.635  -1.162  0.00  0.00    +0.150 HD
BRANCH  19  21
ATOM     21  CA  LEU A  10      24.453  -1.946  -0.384  0.00  0.00    +0.149 C 
BRANCH  21  22
ATOM     22  C   LEU A  10      25.323  -0.755  -0.031  0.00  0.00    +0.241 C 
ATOM     23  O   LEU A  10      26.225  -0.831   0.809  0.00  0.00    -0.273 OA
ATOM     24  N   HIS A  11      25.045   0.367  -0.714  0.00  0.00    -0.298 N 
ATOM     25  H   HIS A  11      24.251   0.393  -1.385  0.00  0.00    +0.150 HD
BRANCH  24  26
ATOM     26  CA  HIS A  11      25.874   1.550  -0.501  0.00  0.00    +0.143 C 
BRANCH  26  27
ATOM     27  C   HIS A  11      25.763   2.064   0.915  0.00  0.00    +0.227 C 
ATOM     28  O   HIS A  11      26.745   2.512   1.493  0.00  0.00    -0.286 OA
ENDBRANCH  26  27
BRANCH  26  29
ATOM     29  CB  HIS A  11      25.482   2.649  -1.496  0.00  0.00    +0.075 C 
BRANCH  29  30
ATOM     30  CG  HIS A  11      26.048   2.390  -2.856  0.00  0.00    +0.082 A 
ATOM     31  CD2 HIS A  11      27.158   2.887  -3.467  0.00  0.00    +0.115 A 
ATOM     32  NE2 HIS A  11      27.200   2.299  -4.711  0.00  0.00    -0.221 NA
ATOM     33  CE1 HIS A  11      26.175   1.479  -4.858  0.00  0.00    +0.199 A 
ATOM     34  ND1 HIS A  11      25.459   1.524  -3.751  0.00  0.00    -0.227 NA
ENDBRANCH  29  30
ENDBRANCH  26  29
ENDBRANCH  24  26
ENDBRANCH  21  22
BRANCH  21  35
ATOM     35  CB  LEU A  10      24.767  -2.407  -1.795  0.00  0.00    +0.029 C 
BRANCH  35  36
ATOM     36  CG  LEU A  10      26.189  -2.883  -2.095  0.00  0.00    +0.002 C 
ATOM     37  CD2 LEU A  10      27.140  -1.720  -2.315  0.00  0.00    +0.000 C 
ATOM     38  CD1 LEU A  10      26.119  -3.740  -3.355  0.00  0.00    +0.000 C 
ENDBRANCH  35  36
ENDBRANCH  21  35
ENDBRANCH  19  21
ENDBRANCH  16  17
ENDBRANCH  14  16
ENDBRANCH  11  12
BRANCH  11  39
ATOM     39  CB  ILE A   8      19.551   2.673  -1.438  0.00  0.00    +0.027 C 
ATOM     40  CG2 ILE A   8      19.564   3.396  -0.104  0.00  0.00    +0.002 C 
BRANCH  39  41
ATOM     41  CG1 ILE A   8      19.213   3.630  -2.593  0.00  0.00    +0.002 C 
ATOM     42  CD1 ILE A   8      17.735   4.003  -2.583  0.00  0.00    +0.000 C 
ENDBRANCH  39  41
ENDBRANCH  11  39
ENDBRANCH   9  11
ENDBRANCH   6   7
ENDBRANCH   4   6
ENDBRANCH   1   2
BRANCH   1  44
ATOM     43  C   SER A   5      22.886  -5.804  -3.262  0.00  0.00    +0.243 C 
ATOM     44  N   SER A   6      22.197  -4.675  -3.348  0.00  0.00    -0.295 N 
ATOM     45  H   SER A   6      21.390  -4.504  -2.715  0.00  0.00    +0.150 HD
ATOM     46  O   SER A   5      23.876  -6.032  -3.944  0.00  0.00    -0.273 OA
BRANCH  43  47
ATOM     47  CA  SER A   5      22.416  -6.812  -2.233  0.00  0.00    +0.178 C 
BRANCH  47  50
ATOM     48  C   CYS A   4      22.410  -5.405  -0.289  0.00  0.00    +0.242 C 
ATOM     49  O   CYS A   4      23.580  -5.078  -0.462  0.00  0.00    -0.273 OA
ATOM     50  N   SER A   5      21.712  -6.168  -1.121  0.00  0.00    -0.295 N 
ATOM     51  H   SER A   5      20.690  -6.305  -0.987  0.00  0.00    +0.150 HD
BRANCH  48  52
ATOM     52  CA  CYS A   4      21.686  -4.800   0.892  0.00  0.00    +0.160 C 
BRANCH  52  54
ATOM     53  C   GLY A   3      19.293  -4.704   0.648  0.00  0.00    +0.243 C 
ATOM     54  N   CYS A   4      20.349  -5.362   1.126  0.00  0.00    -0.296 N 
ATOM     55  H   CYS A   4      20.229  -6.251   1.652  0.00  0.00    +0.150 HD
ATOM     56  O   GLY A   3      19.383  -3.678  -0.014  0.00  0.00    -0.273 OA
BRANCH  53  57
ATOM     57  CA  GLY A   3      17.940  -5.320   0.932  0.00  0.00    +0.176 C 
BRANCH  57  60
ATOM     58  C   THR A   2      17.602  -4.535   3.194  0.00  0.00    +0.243 C 
ATOM     59  O   THR A   2      17.744  -3.361   2.883  0.00  0.00    -0.273 OA
ATOM     60  N   GLY A   3      17.719  -5.549   2.354  0.00  0.00    -0.295 N 
ATOM     61  H   GLY A   3      17.652  -6.523   2.713  0.00  0.00    +0.150 HD
BRANCH  58  62
ATOM     62  CA  THR A   2      17.325  -4.903   4.649  0.00  0.00    +0.176 C 
BRANCH  62  65
ATOM     63  C   ILE A   1      19.037  -4.056   6.073  0.00  0.00    +0.238 C 
ATOM     64  O   ILE A   1      19.710  -5.062   5.947  0.00  0.00    -0.274 OA
ATOM     65  N   THR A   2      17.841  -3.858   5.522  0.00  0.00    -0.295 N 
ATOM     66  H   THR A   2      17.297  -2.991   5.708  0.00  0.00    +0.150 HD
BRANCH  63  67
ATOM     67  CA  ILE A   1      19.557  -2.883   6.887  0.00  0.00    +0.145 C 
BRANCH  67  68
ATOM     68  CB  ILE A   1      20.614  -2.160   6.034  0.00  0.00    +0.025 C 
ATOM     69  CG2 ILE A   1      19.963  -1.576   4.789  0.00  0.00    +0.002 C 
BRANCH  68  70
ATOM     70  CG1 ILE A   1      21.322  -1.084   6.864  0.00  0.00    +0.002 C 
ATOM     71  CD1 ILE A   1      22.625  -0.634   6.220  0.00  0.00    +0.000 C 
ENDBRANCH  68  70
ENDBRANCH  67  68
BRANCH  67  72
ATOM     72  N   ILE A   1      20.154  -3.397   8.105  0.00  0.00    -0.238 NA
ATOM     73  H   ILE A   1      20.944  -4.073   8.063  0.00  0.00    +0.142 HD
ENDBRANCH  67  72
ENDBRANCH  63  67
ENDBRANCH  62  65
BRANCH  62  74
ATOM     74  CB  THR A   2      15.831  -5.116   4.852  0.00  0.00    +0.137 C 
ATOM     75  CG2 THR A   2      15.555  -5.495   6.300  0.00  0.00    +0.034 C 
BRANCH  74  76
ATOM     76  OG1 THR A   2      15.120  -3.904   4.569  0.00  0.00    -0.382 OA
ATOM     77  HG1 THR A   2      14.150  -4.052   4.704  0.00  0.00    +0.210 HD
ENDBRANCH  74  76
ENDBRANCH  62  74
ENDBRANCH  58  62
ENDBRANCH  57  60
ENDBRANCH  53  57
ENDBRANCH  52  54
BRANCH  52  78
ATOM     78  CB  CYS A   4      22.548  -5.025   2.143  0.00  0.00    +0.098 C 
ATOM     79  SG  CYS A   4      21.879  -4.024   3.486  0.00  0.00    -0.080 S 
ENDBRANCH  52  78
ENDBRANCH  48  52
ENDBRANCH  47  50
BRANCH  47  80
ATOM     80  CB  SER A   5      21.511  -7.849  -2.900  0.00  0.00    +0.166 C 
BRANCH  80  81
ATOM     81  OG  SER A   5      20.516  -7.178  -3.651  0.00  0.00    -0.380 OA
ATOM     82  H   SER A   5      19.980  -6.605  -3.048  0.00  0.00    +0.211 HD
ENDBRANCH  80  81
ENDBRANCH  47  80
ENDBRANCH  43  47
ENDBRANCH   1  44
BRANCH   1  83
ATOM     83  CB  SER A   6      21.933  -4.119  -5.662  0.00  0.00    +0.166 C 
BRANCH  83  84
ATOM     84  OG  SER A   6      20.543  -4.188  -5.383  0.00  0.00    -0.380 OA
ATOM     85  H   SER A   6      20.385  -4.845  -4.660  0.00  0.00    +0.211 HD
ENDBRANCH  83  84
ENDBRANCH   1  83
TORSDOF 37
REMARK  Name = ../refined-set-2016/1i5r/1i5r_pocket.pdb
REMARK  336 active torsions:
REMARK  status: ('A' for Active; 'I' for Inactive)
REMARK    1  A    between atoms: _1  and  _3
REMARK    2  A    between atoms: _3  and  _4
REMARK    3  A    between atoms: _3  and  _6
REMARK    4  A    between atoms: _6  and  _7
REMARK    5  A    between atoms: _10  and  _12
REMARK    6  A    between atoms: _12  and  _13
REMARK    7  A    between atoms: _12  and  _15
REMARK    8  A    between atoms: _15  and  _16
REMARK    9  A    between atoms: _19  and  _21
REMARK   10  A    between atoms: _21  and  _22
REMARK   11  A    between atoms: _24  and  _26
REMARK   12  A    between atoms: _26  and  _27
REMARK   13  A    between atoms: _26  and  _29
REMARK   14  A    between atoms: _31  and  _33
REMARK   15  A    between atoms: _33  and  _34
REMARK   16  A    between atoms: _33  and  _36
REMARK   17  A    between atoms: _36  and  _37
REMARK   18  A    between atoms: _39  and  _41
REMARK   19  A    between atoms: _41  and  _42
REMARK   20  A    between atoms: _41  and  _44
REMARK   21  A    between atoms: _44  and  _45
REMARK   22  A    between atoms: _47  and  _49
REMARK   23  A    between atoms: _49  and  _50
REMARK   24  A    between atoms: _52  and  _54
REMARK   25  A    between atoms: _54  and  _55
REMARK   26  A    between atoms: _54  and  _57
REMARK   27  A    between atoms: _57  and  _58
REMARK   28  A    between atoms: _61  and  _63
REMARK   29  A    between atoms: _63  and  _64
REMARK   30  A    between atoms: _66  and  _68
REMARK   31  A    between atoms: _68  and  _69
REMARK   32  A    between atoms: _68  and  _71
REMARK   33  A    between atoms: _71  and  _72
REMARK   34  A    between atoms: _75  and  _77
REMARK   35  A    between atoms: _77  and  _78
REMARK   36  A    between atoms: _77  and  _80
REMARK   37  A    between atoms: _80  and  _81
REMARK   38  A    between atoms: _86  and  _88
REMARK   39  A    between atoms: _88  and  _89
REMARK   40  A    between atoms: _88  and  _91
REMARK   41  A    between atoms: _91  and  _92
REMARK   42  A    between atoms: _95  and  _97
REMARK   43  A    between atoms: _97  and  _98
REMARK   44  A    between atoms: _97  and  _100
REMARK   45  A    between atoms: _100  and  _101
REMARK   46  A    between atoms: _104  and  _106
REMARK   47  A    between atoms: _106  and  _107
REMARK   48  A    between atoms: _106  and  _109
REMARK   49  A    between atoms: _109  and  _110
REMARK   50  A    between atoms: _110  and  _111
REMARK   51  A    between atoms: _111  and  _112
REMARK   52  A    between atoms: _121  and  _123
REMARK   53  A    between atoms: _123  and  _124
REMARK   54  A    between atoms: _123  and  _126
REMARK   55  A    between atoms: _126  and  _127
REMARK   56  A    between atoms: _130  and  _132
REMARK   57  A    between atoms: _132  and  _133
REMARK   58  A    between atoms: _132  and  _135
REMARK   59  A    between atoms: _135  and  _136
REMARK   60  A    between atoms: _139  and  _141
REMARK   61  A    between atoms: _141  and  _142
REMARK   62  A    between atoms: _141  and  _144
REMARK   63  A    between atoms: _144  and  _145
REMARK   64  A    between atoms: _145  and  _146
REMARK   65  A    between atoms: _146  and  _147
REMARK   66  A    between atoms: _156  and  _158
REMARK   67  A    between atoms: _158  and  _159
REMARK   68  A    between atoms: _158  and  _161
REMARK   69  A    between atoms: _161  and  _162
REMARK   70  A    between atoms: _165  and  _167
REMARK   71  A    between atoms: _167  and  _168
REMARK   72  A    between atoms: _167  and  _170
REMARK   73  A    between atoms: _170  and  _171
REMARK   74  A    between atoms: _171  and  _172
REMARK   75  A    between atoms: _177  and  _179
REMARK   76  A    between atoms: _179  and  _180
REMARK   77  A    between atoms: _179  and  _182
REMARK   78  A    between atoms: _182  and  _183
REMARK   79  A    between atoms: _186  and  _188
REMARK   80  A    between atoms: _188  and  _189
REMARK   81  A    between atoms: _188  and  _191
REMARK   82  A    between atoms: _191  and  _192
REMARK   83  A    between atoms: _195  and  _197
REMARK   84  A    between atoms: _197  and  _198
REMARK   85  A    between atoms: _197  and  _200
REMARK   86  A    between atoms: _203  and  _205
REMARK   87  A    between atoms: _205  and  _206
REMARK   88  A    between atoms: _205  and  _208
REMARK   89  A    between atoms: _208  and  _209
REMARK   90  A    between atoms: _209  and  _210
REMARK   91  A    between atoms: _210  and  _211
REMARK   92  A    between atoms: _220  and  _222
REMARK   93  A    between atoms: _222  and  _223
REMARK   94  A    between atoms: _222  and  _225
REMARK   95  A    between atoms: _225  and  _226
REMARK   96  A    between atoms: _229  and  _231
REMARK   97  A    between atoms: _231  and  _232
REMARK   98  A    between atoms: _231  and  _234
REMARK   99  A    between atoms: _234  and  _235
REMARK  100  A    between atoms: _237  and  _239
REMARK  101  A    between atoms: _239  and  _240
REMARK  102  A    between atoms: _239  and  _242
REMARK  103  A    between atoms: _245  and  _247
REMARK  104  A    between atoms: _247  and  _248
REMARK  105  A    between atoms: _247  and  _250
REMARK  106  A    between atoms: _252  and  _254
REMARK  107  A    between atoms: _254  and  _255
REMARK  108  A    between atoms: _254  and  _257
REMARK  109  A    between atoms: _257  and  _258
REMARK  110  A    between atoms: _263  and  _265
REMARK  111  A    between atoms: _265  and  _266
REMARK  112  A    between atoms: _269  and  _271
REMARK  113  A    between atoms: _271  and  _272
REMARK  114  A    between atoms: _274  and  _276
REMARK  115  A    between atoms: _276  and  _277
REMARK  116  A    between atoms: _276  and  _279
REMARK  117  A    between atoms: _279  and  _280
REMARK  118  A    between atoms: _283  and  _285
REMARK  119  A    between atoms: _285  and  _286
REMARK  120  A    between atoms: _288  and  _290
REMARK  121  A    between atoms: _290  and  _291
REMARK  122  A    between atoms: _290  and  _293
REMARK  123  A    between atoms: _293  and  _294
REMARK  124  A    between atoms: _297  and  _299
REMARK  125  A    between atoms: _299  and  _300
REMARK  126  A    between atoms: _299  and  _302
REMARK  127  A    between atoms: _302  and  _303
REMARK  128  A    between atoms: _306  and  _308
REMARK  129  A    between atoms: _308  and  _309
REMARK  130  A    between atoms: _308  and  _311
REMARK  131  A    between atoms: _311  and  _312
REMARK  132  A    between atoms: _314  and  _316
REMARK  133  A    between atoms: _316  and  _317
REMARK  134  A    between atoms: _316  and  _319
REMARK  135  A    between atoms: _319  and  _320
REMARK  136  A    between atoms: _323  and  _325
REMARK  137  A    between atoms: _325  and  _326
REMARK  138  A    between atoms: _325  and  _328
REMARK  139  A    between atoms: _331  and  _333
REMARK  140  A    between atoms: _333  and  _334
REMARK  141  A    between atoms: _333  and  _336
REMARK  142  A    between atoms: _336  and  _337
REMARK  143  A    between atoms: _342  and  _344
REMARK  144  A    between atoms: _344  and  _345
REMARK  145  A    between atoms: _347  and  _349
REMARK  146  A    between atoms: _349  and  _350
REMARK  147  A    between atoms: _349  and  _352
REMARK  148  A    between atoms: _352  and  _353
REMARK  149  A    between atoms: _353  and  _354
REMARK  150  A    between atoms: _354  and  _355
REMARK  151  A    between atoms: _364  and  _366
REMARK  152  A    between atoms: _366  and  _367
REMARK  153  A    between atoms: _366  and  _369
REMARK  154  A    between atoms: _369  and  _370
REMARK  155  A    between atoms: _370  and  _371
REMARK  156  A    between atoms: _373  and  _375
REMARK  157  A    between atoms: _375  and  _376
REMARK  158  A    between atoms: _375  and  _378
REMARK  159  A    between atoms: _378  and  _379
REMARK  160  A    between atoms: _382  and  _384
REMARK  161  A    between atoms: _384  and  _385
REMARK  162  A    between atoms: _387  and  _389
REMARK  163  A    between atoms: _389  and  _390
REMARK  164  A    between atoms: _389  and  _392
REMARK  165  A    between atoms: _392  and  _393
REMARK  166  A    between atoms: _395  and  _397
REMARK  167  A    between atoms: _397  and  _398
REMARK  168  A    between atoms: _397  and  _400
REMARK  169  A    between atoms: _403  and  _405
REMARK  170  A    between atoms: _405  and  _406
REMARK  171  A    between atoms: _408  and  _410
REMARK  172  A    between atoms: _410  and  _411
REMARK  173  A    between atoms: _413  and  _415
REMARK  174  A    between atoms: _415  and  _416
REMARK  175  A    between atoms: _415  and  _418
REMARK  176  A    between atoms: _418  and  _419
REMARK  177  A    between atoms: _422  and  _424
REMARK  178  A    between atoms: _424  and  _425
REMARK  179  A    between atoms: _424  and  _427
REMARK  180  A    between atoms: _427  and  _428
REMARK  181  A    between atoms: _428  and  _429
REMARK  182  A    between atoms: _431  and  _433
REMARK  183  A    between atoms: _433  and  _434
REMARK  184  A    between atoms: _436  and  _438
REMARK  185  A    between atoms: _438  and  _439
REMARK  186  A    between atoms: _438  and  _441
REMARK  187  A    between atoms: _441  and  _442
REMARK  188  A    between atoms: _446  and  _447
REMARK  189  A    between atoms: _452  and  _454
REMARK  190  A    between atoms: _454  and  _455
REMARK  191  A    between atoms: _454  and  _457
REMARK  192  A    between atoms: _457  and  _458
REMARK  193  A    between atoms: _463  and  _465
REMARK  194  A    between atoms: _465  and  _466
REMARK  195  A    between atoms: _465  and  _468
REMARK  196  A    between atoms: _468  and  _469
REMARK  197  A    between atoms: _474  and  _475
REMARK  198  A    between atoms: _477  and  _479
REMARK  199  A    between atoms: _479  and  _480
REMARK  200  A    between atoms: _479  and  _482
REMARK  201  A    between atoms: _484  and  _486
REMARK  202  A    between atoms: _486  and  _487
REMARK  203  A    between atoms: _486  and  _489
REMARK  204  A    between atoms: _489  and  _490
REMARK  205  A    between atoms: _490  and  _491
REMARK  206  A    between atoms: _491  and  _492
REMARK  207  A    between atoms: _492  and  _493
REMARK  208  A    between atoms: _497  and  _499
REMARK  209  A    between atoms: _499  and  _500
REMARK  210  A    between atoms: _499  and  _502
REMARK  211  A    between atoms: _502  and  _503
REMARK  212  A    between atoms: _503  and  _504
REMARK  213  A    between atoms: _507  and  _509
REMARK  214  A    between atoms: _509  and  _510
REMARK  215  A    between atoms: _509  and  _512
REMARK  216  A    between atoms: _514  and  _516
REMARK  217  A    between atoms: _516  and  _517
REMARK  218  A    between atoms: _520  and  _521
REMARK  219  A    between atoms: _526  and  _528
REMARK  220  A    between atoms: _528  and  _529
REMARK  221  A    between atoms: _528  and  _531
REMARK  222  A    between atoms: _534  and  _536
REMARK  223  A    between atoms: _536  and  _537
REMARK  224  A    between atoms: _536  and  _539
REMARK  225  A    between atoms: _539  and  _540
REMARK  226  A    between atoms: _543  and  _545
REMARK  227  A    between atoms: _545  and  _546
REMARK  228  A    between atoms: _545  and  _548
REMARK  229  A    between atoms: _548  and  _549
REMARK  230  A    between atoms: _555  and  _557
REMARK  231  A    between atoms: _557  and  _558
REMARK  232  A    between atoms: _557  and  _560
REMARK  233  A    between atoms: _560  and  _561
REMARK  234  A    between atoms: _561  and  _562
REMARK  235  A    between atoms: _564  and  _566
REMARK  236  A    between atoms: _566  and  _567
REMARK  237  A    between atoms: _566  and  _569
REMARK  238  A    between atoms: _569  and  _570
REMARK  239  A    between atoms: _570  and  _571
REMARK  240  A    between atoms: _574  and  _576
REMARK  241  A    between atoms: _576  and  _577
REMARK  242  A    between atoms: _576  and  _579
REMARK  243  A    between atoms: _579  and  _580
REMARK  244  A    between atoms: _580  and  _581
REMARK  245  A    between atoms: _581  and  _582
REMARK  246  A    between atoms: _582  and  _583
REMARK  247  A    between atoms: _587  and  _589
REMARK  248  A    between atoms: _589  and  _590
REMARK  249  A    between atoms: _589  and  _592
REMARK  250  A    between atoms: _592  and  _593
REMARK  251  A    between atoms: _598  and  _599
REMARK  252  A    between atoms: _601  and  _603
REMARK  253  A    between atoms: _603  and  _604
REMARK  254  A    between atoms: _603  and  _606
REMARK  255  A    between atoms: _606  and  _607
REMARK  256  A    between atoms: _610  and  _612
REMARK  257  A    between atoms: _612  and  _613
REMARK  258  A    between atoms: _612  and  _615
REMARK  259  A    between atoms: _615  and  _616
REMARK  260  A    between atoms: _621  and  _623
REMARK  261  A    between atoms: _623  and  _624
REMARK  262  A    between atoms: _623  and  _626
REMARK  263  A    between atoms: _626  and  _627
REMARK  264  A    between atoms: _629  and  _631
REMARK  265  A    between atoms: _631  and  _632
REMARK  266  A    between atoms: _631  and  _634
REMARK  267  A    between atoms: _634  and  _635
REMARK  268  A    between atoms: _635  and  _636
REMARK  269  A    between atoms: _636  and  _637
REMARK  270  A    between atoms: _637  and  _638
REMARK  271  A    between atoms: _642  and  _644
REMARK  272  A    between atoms: _644  and  _645
REMARK  273  A    between atoms: _644  and  _647
REMARK  274  A    between atoms: _647  and  _648
REMARK  275  A    between atoms: _648  and  _649
REMARK  276  A    between atoms: _654  and  _656
REMARK  277  A    between atoms: _656  and  _657
REMARK  278  A    between atoms: _656  and  _659
REMARK  279  A    between atoms: _662  and  _664
REMARK  280  A    between atoms: _664  and  _665
REMARK  281  A    between atoms: _664  and  _667
REMARK  282  A    between atoms: _667  and  _668
REMARK  283  A    between atoms: _674  and  _676
REMARK  284  A    between atoms: _676  and  _677
REMARK  285  A    between atoms: _680  and  _682
REMARK  286  A    between atoms: _682  and  _683
REMARK  287  A    between atoms: _682  and  _685
REMARK  288  A    between atoms: _685  and  _686
REMARK  289  A    between atoms: _689  and  _691
REMARK  290  A    between atoms: _691  and  _692
REMARK  291  A    between atoms: _691  and  _694
REMARK  292  A    between atoms: _694  and  _695
REMARK  293  A    between atoms: _695  and  _696
REMARK  294  A    between atoms: _696  and  _697
REMARK  295  A    between atoms: _706  and  _708
REMARK  296  A    between atoms: _708  and  _709
REMARK  297  A    between atoms: _708  and  _711
REMARK  298  A    between atoms: _711  and  _712
REMARK  299  A    between atoms: _718  and  _720
REMARK  300  A    between atoms: _720  and  _721
REMARK  301  A    between atoms: _720  and  _723
REMARK  302  A    between atoms: _723  and  _724
REMARK  303  A    between atoms: _727  and  _729
REMARK  304  A    between atoms: _729  and  _730
REMARK  305  A    between atoms: _729  and  _732
REMARK  306  A    between atoms: _732  and  _733
REMARK  307  A    between atoms: _738  and  _739
REMARK  308  A    between atoms: _741  and  _743
REMARK  309  A    between atoms: _743  and  _744
REMARK  310  A    between atoms: _747  and  _749
REMARK  311  A    between atoms: _749  and  _750
REMARK  312  A    between atoms: _749  and  _752
REMARK  313  A    between atoms: _752  and  _753
REMARK  314  A    between atoms: _753  and  _754
REMARK  315  A    between atoms: _756  and  _758
REMARK  316  A    between atoms: _758  and  _759
REMARK  317  A    between atoms: _758  and  _761
REMARK  318  A    between atoms: _761  and  _762
REMARK  319  A    between atoms: _767  and  _769
REMARK  320  A    between atoms: _769  and  _770
REMARK  321  A    between atoms: _769  and  _772
REMARK  322  A    between atoms: _772  and  _773
REMARK  323  A    between atoms: _773  and  _774
REMARK  324  A    between atoms: _774  and  _775
REMARK  325  A    between atoms: _784  and  _786
REMARK  326  A    between atoms: _786  and  _787
REMARK  327  A    between atoms: _786  and  _789
REMARK  328  A    between atoms: _789  and  _790
REMARK  329  A    between atoms: _790  and  _791
REMARK  330  A    between atoms: _794  and  _796
REMARK  331  A    between atoms: _796  and  _797
REMARK  332  A    between atoms: _796  and  _799
REMARK  333  A    between atoms: _802  and  _804
REMARK  334  A    between atoms: _804  and  _805
REMARK  335  A    between atoms: _804  and  _807
REMARK  336  A    between atoms: _807  and  _808
REMARK                            x       y       z     vdW  Elec       q    Type
REMARK                         _______ _______ _______ _____ _____    ______ ____
ROOT
ATOM      1  CA  ARG A   3      17.301 -11.687   0.706  0.00  0.00    +0.149 C 
ENDROOT
BRANCH   1   4
ATOM      2  C   LEU A   2      19.141 -10.758   1.898  0.00  0.00    +0.241 C 
ATOM      3  O   LEU A   2      19.168 -11.684   2.709  0.00  0.00    -0.273 OA
ATOM      4  N   ARG A   3      18.308 -10.650   0.872  0.00  0.00    -0.297 N 
ATOM      5  H   ARG A   3      18.372  -9.852   0.209  0.00  0.00    +0.150 HD
BRANCH   2   6
ATOM      6  CA  LEU A   2      20.176  -9.652   2.004  0.00  0.00    +0.149 C 
BRANCH   6   8
ATOM      7  C   THR A   1      20.523  -8.216   3.913  0.00  0.00    +0.241 C 
ATOM      8  N   LEU A   2      20.463  -9.445   3.417  0.00  0.00    -0.297 N 
ATOM      9  H   LEU A   2      20.621 -10.263   4.039  0.00  0.00    +0.150 HD
ATOM     10  O   THR A   1      20.389  -7.185   3.257  0.00  0.00    -0.274 OA
BRANCH   7  11
ATOM     11  CA  THR A   1      20.982  -8.203   5.350  0.00  0.00    +0.172 C 
BRANCH  11  12
ATOM     12  CB  THR A   1      19.835  -8.407   6.330  0.00  0.00    +0.135 C 
ATOM     13  CG2 THR A   1      20.318  -8.130   7.739  0.00  0.00    +0.034 C 
BRANCH  12  14
ATOM     14  OG1 THR A   1      18.758  -7.512   5.999  0.00  0.00    -0.383 OA
ATOM     15  HG1 THR A   1      18.012  -7.645   6.636  0.00  0.00    +0.210 HD
ENDBRANCH  12  14
ENDBRANCH  11  12
BRANCH  11  16
ATOM     16  N   THR A   1      21.735  -6.976   5.590  0.00  0.00    -0.236 NA
ATOM     17  H   THR A   1      21.257  -6.063   5.729  0.00  0.00    +0.142 HD
ENDBRANCH  11  16
ENDBRANCH   7  11
ENDBRANCH   6   8
BRANCH   6  18
ATOM     18  CB  LEU A   2      21.451 -10.114   1.302  0.00  0.00    +0.029 C 
BRANCH  18  19
ATOM     19  CG  LEU A   2      22.603  -9.105   1.200  0.00  0.00    +0.002 C 
ATOM     20  CD2 LEU A   2      23.550  -9.268   2.372  0.00  0.00    +0.000 C 
ATOM     21  CD1 LEU A   2      23.352  -9.284  -0.103  0.00  0.00    +0.000 C 
ENDBRANCH  18  19
ENDBRANCH   6  18
ENDBRANCH   2   6
ENDBRANCH   1   4
BRANCH   1  22
ATOM     22  C   ARG A   3      17.976 -13.028   0.477  0.00  0.00    +0.241 C 
ATOM     23  O   ARG A   3      17.549 -14.057   0.967  0.00  0.00    -0.273 OA
ATOM     24  N   ASP A   4      18.997 -12.982  -0.376  0.00  0.00    -0.298 N 
ATOM     25  H   ASP A   4      19.272 -12.073  -0.800  0.00  0.00    +0.150 HD
BRANCH  24  26
ATOM     26  CA  ASP A   4      19.732 -14.187  -0.722  0.00  0.00    +0.148 C 
BRANCH  26  27
ATOM     27  C   ASP A   4      21.202 -13.887  -0.466  0.00  0.00    +0.227 C 
ATOM     28  O   ASP A   4      21.759 -13.004  -1.111  0.00  0.00    -0.286 OA
ENDBRANCH  26  27
BRANCH  26  29
ATOM     29  CB  ASP A   4      19.529 -14.544  -2.190  0.00  0.00    +0.142 C 
BRANCH  29  30
ATOM     30  CG  ASP A   4      18.063 -14.740  -2.549  0.00  0.00    +0.367 C 
ATOM     31  OD2 ASP A   4      17.425 -15.522  -1.830  0.00  0.00    -0.246 OA
ATOM     32  OD1 ASP A   4      17.612 -14.116  -3.518  0.00  0.00    -0.246 OA
ENDBRANCH  29  30
ENDBRANCH  26  29
ENDBRANCH  24  26
ENDBRANCH   1  22
BRANCH   1  33
ATOM     33  CB  ARG A   3      16.409 -11.350  -0.483  0.00  0.00    +0.033 C 
BRANCH  33  34
ATOM     34  CG  ARG A   3      15.140 -12.215  -0.425  0.00  0.00    +0.045 C 
BRANCH  34  35
ATOM     35  CD  ARG A   3      14.418 -12.111  -1.755  0.00  0.00    +0.174 C 
BRANCH  35  36
ATOM     36  NE  ARG A   3      15.104 -12.881  -2.795  0.00  0.00    -0.265 N 
ATOM     37  HE  ARG A   3      15.985 -13.380  -2.556  0.00  0.00    +0.259 HD
ATOM     38  CZ  ARG A   3      14.632 -12.960  -4.036  0.00  0.00    +0.342 C 
ATOM     39  NH2 ARG A   3      13.514 -12.325  -4.358  0.00  0.00    -0.292 N 
ATOM     40 HH21 ARG A   3      13.008 -11.767  -3.641  0.00  0.00    +0.255 HD
ATOM     41 HH22 ARG A   3      13.143 -12.385  -5.328  0.00  0.00    +0.255 HD
ATOM     42  NH1 ARG A   3      15.287 -13.672  -4.945  0.00  0.00    -0.292 N 
ATOM     43 HH11 ARG A   3      16.165 -14.165  -4.685  0.00  0.00    +0.255 HD
ATOM     44 HH12 ARG A   3      14.922 -13.737  -5.917  0.00  0.00    +0.255 HD
ENDBRANCH  35  36
ENDBRANCH  34  35
ENDBRANCH  33  34
ENDBRANCH   1  33
TORSDOF 18
REMARK  Name = ../refined-set-2016/1i5r/1i5r_pocket.pdb
REMARK  336 active torsions:
REMARK  status: ('A' for Active; 'I' for Inactive)
REMARK    1  A    between atoms: _1  and  _3
REMARK    2  A    between atoms: _3  and  _4
REMARK    3  A    between atoms: _3  and  _6
REMARK    4  A    between atoms: _6  and  _7
REMARK    5  A    between atoms: _10  and  _12
REMARK    6  A    between atoms: _12  and  _13
REMARK    7  A    between atoms: _12  and  _15
REMARK    8  A    between atoms: _15  and  _16
REMARK    9  A    between atoms: _19  and  _21
REMARK   10  A    between atoms: _21  and  _22
REMARK   11  A    between atoms: _24  and  _26
REMARK   12  A    between atoms: _26  and  _27
REMARK   13  A    between atoms: _26  and  _29
REMARK   14  A    between atoms: _31  and  _33
REMARK   15  A    between atoms: _33  and  _34
REMARK   16  A    between atoms: _33  and  _36
REMARK   17  A    between atoms: _36  and  _37
REMARK   18  A    between atoms: _39  and  _41
REMARK   19  A    between atoms: _41  and  _42
REMARK   20  A    between atoms: _41  and  _44
REMARK   21  A    between atoms: _44  and  _45
REMARK   22  A    between atoms: _47  and  _49
REMARK   23  A    between atoms: _49  and  _50
REMARK   24  A    between atoms: _52  and  _54
REMARK   25  A    between atoms: _54  and  _55
REMARK   26  A    between atoms: _54  and  _57
REMARK   27  A    between atoms: _57  and  _58
REMARK   28  A    between atoms: _61  and  _63
REMARK   29  A    between atoms: _63  and  _64
REMARK   30  A    between atoms: _66  and  _68
REMARK   31  A    between atoms: _68  and  _69
REMARK   32  A    between atoms: _68  and  _71
REMARK   33  A    between atoms: _71  and  _72
REMARK   34  A    between atoms: _75  and  _77
REMARK   35  A    between atoms: _77  and  _78
REMARK   36  A    between atoms: _77  and  _80
REMARK   37  A    between atoms: _80  and  _81
REMARK   38  A    between atoms: _86  and  _88
REMARK   39  A    between atoms: _88  and  _89
REMARK   40  A    between atoms: _88  and  _91
REMARK   41  A    between atoms: _91  and  _92
REMARK   42  A    between atoms: _95  and  _97
REMARK   43  A    between atoms: _97  and  _98
REMARK   44  A    between atoms: _97  and  _100
REMARK   45  A    between atoms: _100  and  _101
REMARK   46  A    between atoms: _104  and  _106
REMARK   47  A    between atoms: _106  and  _107
REMARK   48  A    between atoms: _106  and  _109
REMARK   49  A    between atoms: _109  and  _110
REMARK   50  A    between atoms: _110  and  _111
REMARK   51  A    between atoms: _111  and  _112
REMARK   52  A    between atoms: _121  and  _123
REMARK   53  A    between atoms: _123  and  _124
REMARK   54  A    between atoms: _123  and  _126
REMARK   55  A    between atoms: _126  and  _127
REMARK   56  A    between atoms: _130  and  _132
REMARK   57  A    between atoms: _132  and  _133
REMARK   58  A    between atoms: _132  and  _135
REMARK   59  A    between atoms: _135  and  _136
REMARK   60  A    between atoms: _139  and  _141
REMARK   61  A    between atoms: _141  and  _142
REMARK   62  A    between atoms: _141  and  _144
REMARK   63  A    between atoms: _144  and  _145
REMARK   64  A    between atoms: _145  and  _146
REMARK   65  A    between atoms: _146  and  _147
REMARK   66  A    between atoms: _156  and  _158
REMARK   67  A    between atoms: _158  and  _159
REMARK   68  A    between atoms: _158  and  _161
REMARK   69  A    between atoms: _161  and  _162
REMARK   70  A    between atoms: _165  and  _167
REMARK   71  A    between atoms: _167  and  _168
REMARK   72  A    between atoms: _167  and  _170
REMARK   73  A    between atoms: _170  and  _171
REMARK   74  A    between atoms: _171  and  _172
REMARK   75  A    between atoms: _177  and  _179
REMARK   76  A    between atoms: _179  and  _180
REMARK   77  A    between atoms: _179  and  _182
REMARK   78  A    between atoms: _182  and  _183
REMARK   79  A    between atoms: _186  and  _188
REMARK   80  A    between atoms: _188  and  _189
REMARK   81  A    between atoms: _188  and  _191
REMARK   82  A    between atoms: _191  and  _192
REMARK   83  A    between atoms: _195  and  _197
REMARK   84  A    between atoms: _197  and  _198
REMARK   85  A    between atoms: _197  and  _200
REMARK   86  A    between atoms: _203  and  _205
REMARK   87  A    between atoms: _205  and  _206
REMARK   88  A    between atoms: _205  and  _208
REMARK   89  A    between atoms: _208  and  _209
REMARK   90  A    between atoms: _209  and  _210
REMARK   91  A    between atoms: _210  and  _211
REMARK   92  A    between atoms: _220  and  _222
REMARK   93  A    between atoms: _222  and  _223
REMARK   94  A    between atoms: _222  and  _225
REMARK   95  A    between atoms: _225  and  _226
REMARK   96  A    between atoms: _229  and  _231
REMARK   97  A    between atoms: _231  and  _232
REMARK   98  A    between atoms: _231  and  _234
REMARK   99  A    between atoms: _234  and  _235
REMARK  100  A    between atoms: _237  and  _239
REMARK  101  A    between atoms: _239  and  _240
REMARK  102  A    between atoms: _239  and  _242
REMARK  103  A    between atoms: _245  and  _247
REMARK  104  A    between atoms: _247  and  _248
REMARK  105  A    between atoms: _247  and  _250
REMARK  106  A    between atoms: _252  and  _254
REMARK  107  A    between atoms: _254  and  _255
REMARK  108  A    between atoms: _254  and  _257
REMARK  109  A    between atoms: _257  and  _258
REMARK  110  A    between atoms: _263  and  _265
REMARK  111  A    between atoms: _265  and  _266
REMARK  112  A    between atoms: _269  and  _271
REMARK  113  A    between atoms: _271  and  _272
REMARK  114  A    between atoms: _274  and  _276
REMARK  115  A    between atoms: _276  and  _277
REMARK  116  A    between atoms: _276  and  _279
REMARK  117  A    between atoms: _279  and  _280
REMARK  118  A    between atoms: _283  and  _285
REMARK  119  A    between atoms: _285  and  _286
REMARK  120  A    between atoms: _288  and  _290
REMARK  121  A    between atoms: _290  and  _291
REMARK  122  A    between atoms: _290  and  _293
REMARK  123  A    between atoms: _293  and  _294
REMARK  124  A    between atoms: _297  and  _299
REMARK  125  A    between atoms: _299  and  _300
REMARK  126  A    between atoms: _299  and  _302
REMARK  127  A    between atoms: _302  and  _303
REMARK  128  A    between atoms: _306  and  _308
REMARK  129  A    between atoms: _308  and  _309
REMARK  130  A    between atoms: _308  and  _311
REMARK  131  A    between atoms: _311  and  _312
REMARK  132  A    between atoms: _314  and  _316
REMARK  133  A    between atoms: _316  and  _317
REMARK  134  A    between atoms: _316  and  _319
REMARK  135  A    between atoms: _319  and  _320
REMARK  136  A    between atoms: _323  and  _325
REMARK  137  A    between atoms: _325  and  _326
REMARK  138  A    between atoms: _325  and  _328
REMARK  139  A    between atoms: _331  and  _333
REMARK  140  A    between atoms: _333  and  _334
REMARK  141  A    between atoms: _333  and  _336
REMARK  142  A    between atoms: _336  and  _337
REMARK  143  A    between atoms: _342  and  _344
REMARK  144  A    between atoms: _344  and  _345
REMARK  145  A    between atoms: _347  and  _349
REMARK  146  A    between atoms: _349  and  _350
REMARK  147  A    between atoms: _349  and  _352
REMARK  148  A    between atoms: _352  and  _353
REMARK  149  A    between atoms: _353  and  _354
REMARK  150  A    between atoms: _354  and  _355
REMARK  151  A    between atoms: _364  and  _366
REMARK  152  A    between atoms: _366  and  _367
REMARK  153  A    between atoms: _366  and  _369
REMARK  154  A    between atoms: _369  and  _370
REMARK  155  A    between atoms: _370  and  _371
REMARK  156  A    between atoms: _373  and  _375
REMARK  157  A    between atoms: _375  and  _376
REMARK  158  A    between atoms: _375  and  _378
REMARK  159  A    between atoms: _378  and  _379
REMARK  160  A    between atoms: _382  and  _384
REMARK  161  A    between atoms: _384  and  _385
REMARK  162  A    between atoms: _387  and  _389
REMARK  163  A    between atoms: _389  and  _390
REMARK  164  A    between atoms: _389  and  _392
REMARK  165  A    between atoms: _392  and  _393
REMARK  166  A    between atoms: _395  and  _397
REMARK  167  A    between atoms: _397  and  _398
REMARK  168  A    between atoms: _397  and  _400
REMARK  169  A    between atoms: _403  and  _405
REMARK  170  A    between atoms: _405  and  _406
REMARK  171  A    between atoms: _408  and  _410
REMARK  172  A    between atoms: _410  and  _411
REMARK  173  A    between atoms: _413  and  _415
REMARK  174  A    between atoms: _415  and  _416
REMARK  175  A    between atoms: _415  and  _418
REMARK  176  A    between atoms: _418  and  _419
REMARK  177  A    between atoms: _422  and  _424
REMARK  178  A    between atoms: _424  and  _425
REMARK  179  A    between atoms: _424  and  _427
REMARK  180  A    between atoms: _427  and  _428
REMARK  181  A    between atoms: _428  and  _429
REMARK  182  A    between atoms: _431  and  _433
REMARK  183  A    between atoms: _433  and  _434
REMARK  184  A    between atoms: _436  and  _438
REMARK  185  A    between atoms: _438  and  _439
REMARK  186  A    between atoms: _438  and  _441
REMARK  187  A    between atoms: _441  and  _442
REMARK  188  A    between atoms: _446  and  _447
REMARK  189  A    between atoms: _452  and  _454
REMARK  190  A    between atoms: _454  and  _455
REMARK  191  A    between atoms: _454  and  _457
REMARK  192  A    between atoms: _457  and  _458
REMARK  193  A    between atoms: _463  and  _465
REMARK  194  A    between atoms: _465  and  _466
REMARK  195  A    between atoms: _465  and  _468
REMARK  196  A    between atoms: _468  and  _469
REMARK  197  A    between atoms: _474  and  _475
REMARK  198  A    between atoms: _477  and  _479
REMARK  199  A    between atoms: _479  and  _480
REMARK  200  A    between atoms: _479  and  _482
REMARK  201  A    between atoms: _484  and  _486
REMARK  202  A    between atoms: _486  and  _487
REMARK  203  A    between atoms: _486  and  _489
REMARK  204  A    between atoms: _489  and  _490
REMARK  205  A    between atoms: _490  and  _491
REMARK  206  A    between atoms: _491  and  _492
REMARK  207  A    between atoms: _492  and  _493
REMARK  208  A    between atoms: _497  and  _499
REMARK  209  A    between atoms: _499  and  _500
REMARK  210  A    between atoms: _499  and  _502
REMARK  211  A    between atoms: _502  and  _503
REMARK  212  A    between atoms: _503  and  _504
REMARK  213  A    between atoms: _507  and  _509
REMARK  214  A    between atoms: _509  and  _510
REMARK  215  A    between atoms: _509  and  _512
REMARK  216  A    between atoms: _514  and  _516
REMARK  217  A    between atoms: _516  and  _517
REMARK  218  A    between atoms: _520  and  _521
REMARK  219  A    between atoms: _526  and  _528
REMARK  220  A    between atoms: _528  and  _529
REMARK  221  A    between atoms: _528  and  _531
REMARK  222  A    between atoms: _534  and  _536
REMARK  223  A    between atoms: _536  and  _537
REMARK  224  A    between atoms: _536  and  _539
REMARK  225  A    between atoms: _539  and  _540
REMARK  226  A    between atoms: _543  and  _545
REMARK  227  A    between atoms: _545  and  _546
REMARK  228  A    between atoms: _545  and  _548
REMARK  229  A    between atoms: _548  and  _549
REMARK  230  A    between atoms: _555  and  _557
REMARK  231  A    between atoms: _557  and  _558
REMARK  232  A    between atoms: _557  and  _560
REMARK  233  A    between atoms: _560  and  _561
REMARK  234  A    between atoms: _561  and  _562
REMARK  235  A    between atoms: _564  and  _566
REMARK  236  A    between atoms: _566  and  _567
REMARK  237  A    between atoms: _566  and  _569
REMARK  238  A    between atoms: _569  and  _570
REMARK  239  A    between atoms: _570  and  _571
REMARK  240  A    between atoms: _574  and  _576
REMARK  241  A    between atoms: _576  and  _577
REMARK  242  A    between atoms: _576  and  _579
REMARK  243  A    between atoms: _579  and  _580
REMARK  244  A    between atoms: _580  and  _581
REMARK  245  A    between atoms: _581  and  _582
REMARK  246  A    between atoms: _582  and  _583
REMARK  247  A    between atoms: _587  and  _589
REMARK  248  A    between atoms: _589  and  _590
REMARK  249  A    between atoms: _589  and  _592
REMARK  250  A    between atoms: _592  and  _593
REMARK  251  A    between atoms: _598  and  _599
REMARK  252  A    between atoms: _601  and  _603
REMARK  253  A    between atoms: _603  and  _604
REMARK  254  A    between atoms: _603  and  _606
REMARK  255  A    between atoms: _606  and  _607
REMARK  256  A    between atoms: _610  and  _612
REMARK  257  A    between atoms: _612  and  _613
REMARK  258  A    between atoms: _612  and  _615
REMARK  259  A    between atoms: _615  and  _616
REMARK  260  A    between atoms: _621  and  _623
REMARK  261  A    between atoms: _623  and  _624
REMARK  262  A    between atoms: _623  and  _626
REMARK  263  A    between atoms: _626  and  _627
REMARK  264  A    between atoms: _629  and  _631
REMARK  265  A    between atoms: _631  and  _632
REMARK  266  A    between atoms: _631  and  _634
REMARK  267  A    between atoms: _634  and  _635
REMARK  268  A    between atoms: _635  and  _636
REMARK  269  A    between atoms: _636  and  _637
REMARK  270  A    between atoms: _637  and  _638
REMARK  271  A    between atoms: _642  and  _644
REMARK  272  A    between atoms: _644  and  _645
REMARK  273  A    between atoms: _644  and  _647
REMARK  274  A    between atoms: _647  and  _648
REMARK  275  A    between atoms: _648  and  _649
REMARK  276  A    between atoms: _654  and  _656
REMARK  277  A    between atoms: _656  and  _657
REMARK  278  A    between atoms: _656  and  _659
REMARK  279  A    between atoms: _662  and  _664
REMARK  280  A    between atoms: _664  and  _665
REMARK  281  A    between atoms: _664  and  _667
REMARK  282  A    between atoms: _667  and  _668
REMARK  283  A    between atoms: _674  and  _676
REMARK  284  A    between atoms: _676  and  _677
REMARK  285  A    between atoms: _680  and  _682
REMARK  286  A    between atoms: _682  and  _683
REMARK  287  A    between atoms: _682  and  _685
REMARK  288  A    between atoms: _685  and  _686
REMARK  289  A    between atoms: _689  and  _691
REMARK  290  A    between atoms: _691  and  _692
REMARK  291  A    between atoms: _691  and  _694
REMARK  292  A    between atoms: _694  and  _695
REMARK  293  A    between atoms: _695  and  _696
REMARK  294  A    between atoms: _696  and  _697
REMARK  295  A    between atoms: _706  and  _708
REMARK  296  A    between atoms: _708  and  _709
REMARK  297  A    between atoms: _708  and  _711
REMARK  298  A    between atoms: _711  and  _712
REMARK  299  A    between atoms: _718  and  _720
REMARK  300  A    between atoms: _720  and  _721
REMARK  301  A    between atoms: _720  and  _723
REMARK  302  A    between atoms: _723  and  _724
REMARK  303  A    between atoms: _727  and  _729
REMARK  304  A    between atoms: _729  and  _730
REMARK  305  A    between atoms: _729  and  _732
REMARK  306  A    between atoms: _732  and  _733
REMARK  307  A    between atoms: _738  and  _739
REMARK  308  A    between atoms: _741  and  _743
REMARK  309  A    between atoms: _743  and  _744
REMARK  310  A    between atoms: _747  and  _749
REMARK  311  A    between atoms: _749  and  _750
REMARK  312  A    between atoms: _749  and  _752
REMARK  313  A    between atoms: _752  and  _753
REMARK  314  A    between atoms: _753  and  _754
REMARK  315  A    between atoms: _756  and  _758
REMARK  316  A    between atoms: _758  and  _759
REMARK  317  A    between atoms: _758  and  _761
REMARK  318  A    between atoms: _761  and  _762
REMARK  319  A    between atoms: _767  and  _769
REMARK  320  A    between atoms: _769  and  _770
REMARK  321  A    between atoms: _769  and  _772
REMARK  322  A    between atoms: _772  and  _773
REMARK  323  A    between atoms: _773  and  _774
REMARK  324  A    between atoms: _774  and  _775
REMARK  325  A    between atoms: _784  and  _786
REMARK  326  A    between atoms: _786  and  _787
REMARK  327  A    between atoms: _786  and  _789
REMARK  328  A    between atoms: _789  and  _790
REMARK  329  A    between atoms: _790  and  _791
REMARK  330  A    between atoms: _794  and  _796
REMARK  331  A    between atoms: _796  and  _797
REMARK  332  A    between atoms: _796  and  _799
REMARK  333  A    between atoms: _802  and  _804
REMARK  334  A    between atoms: _804  and  _805
REMARK  335  A    between atoms: _804  and  _807
REMARK  336  A    between atoms: _807  and  _808
REMARK                            x       y       z     vdW  Elec       q    Type
REMARK                         _______ _______ _______ _____ _____    ______ ____
ROOT
ATOM      1  CA  THR A   1      24.087 -11.799  -3.786  0.00  0.00    +0.160 C 
ENDROOT
BRANCH   1   2
ATOM      2  N   THR A   1      23.921 -13.095  -3.159  0.00  0.00    -0.237 NA
ATOM      3  H   THR A   1      23.214 -13.214  -2.406  0.00  0.00    +0.142 HD
ENDBRANCH   1   2
BRANCH   1   4
ATOM      4  C   THR A   1      24.972 -10.895  -2.952  0.00  0.00    +0.227 C 
ATOM      5  O   THR A   1      25.139  -9.751  -3.366  0.00  0.00    -0.287 OA
ENDBRANCH   1   4
BRANCH   1   6
ATOM      6  CB  THR A   1      22.715 -11.082  -3.881  0.00  0.00    +0.134 C 
ATOM      7  CG2 THR A   1      21.710 -11.933  -4.627  0.00  0.00    +0.034 C 
BRANCH   6   8
ATOM      8  OG1 THR A   1      22.310 -10.872  -2.516  0.00  0.00    -0.383 OA
ATOM      9  HG1 THR A   1      22.235 -11.746  -2.057  0.00  0.00    +0.210 HD
ENDBRANCH   6   8
ENDBRANCH   1   6
TORSDOF 4
REMARK  Name = ../refined-set-2016/1i5r/1i5r_pocket.pdb
REMARK  336 active torsions:
REMARK  status: ('A' for Active; 'I' for Inactive)
REMARK    1  A    between atoms: _1  and  _3
REMARK    2  A    between atoms: _3  and  _4
REMARK    3  A    between atoms: _3  and  _6
REMARK    4  A    between atoms: _6  and  _7
REMARK    5  A    between atoms: _10  and  _12
REMARK    6  A    between atoms: _12  and  _13
REMARK    7  A    between atoms: _12  and  _15
REMARK    8  A    between atoms: _15  and  _16
REMARK    9  A    between atoms: _19  and  _21
REMARK   10  A    between atoms: _21  and  _22
REMARK   11  A    between atoms: _24  and  _26
REMARK   12  A    between atoms: _26  and  _27
REMARK   13  A    between atoms: _26  and  _29
REMARK   14  A    between atoms: _31  and  _33
REMARK   15  A    between atoms: _33  and  _34
REMARK   16  A    between atoms: _33  and  _36
REMARK   17  A    between atoms: _36  and  _37
REMARK   18  A    between atoms: _39  and  _41
REMARK   19  A    between atoms: _41  and  _42
REMARK   20  A    between atoms: _41  and  _44
REMARK   21  A    between atoms: _44  and  _45
REMARK   22  A    between atoms: _47  and  _49
REMARK   23  A    between atoms: _49  and  _50
REMARK   24  A    between atoms: _52  and  _54
REMARK   25  A    between atoms: _54  and  _55
REMARK   26  A    between atoms: _54  and  _57
REMARK   27  A    between atoms: _57  and  _58
REMARK   28  A    between atoms: _61  and  _63
REMARK   29  A    between atoms: _63  and  _64
REMARK   30  A    between atoms: _66  and  _68
REMARK   31  A    between atoms: _68  and  _69
REMARK   32  A    between atoms: _68  and  _71
REMARK   33  A    between atoms: _71  and  _72
REMARK   34  A    between atoms: _75  and  _77
REMARK   35  A    between atoms: _77  and  _78
REMARK   36  A    between atoms: _77  and  _80
REMARK   37  A    between atoms: _80  and  _81
REMARK   38  A    between atoms: _86  and  _88
REMARK   39  A    between atoms: _88  and  _89
REMARK   40  A    between atoms: _88  and  _91
REMARK   41  A    between atoms: _91  and  _92
REMARK   42  A    between atoms: _95  and  _97
REMARK   43  A    between atoms: _97  and  _98
REMARK   44  A    between atoms: _97  and  _100
REMARK   45  A    between atoms: _100  and  _101
REMARK   46  A    between atoms: _104  and  _106
REMARK   47  A    between atoms: _106  and  _107
REMARK   48  A    between atoms: _106  and  _109
REMARK   49  A    between atoms: _109  and  _110
REMARK   50  A    between atoms: _110  and  _111
REMARK   51  A    between atoms: _111  and  _112
REMARK   52  A    between atoms: _121  and  _123
REMARK   53  A    between atoms: _123  and  _124
REMARK   54  A    between atoms: _123  and  _126
REMARK   55  A    between atoms: _126  and  _127
REMARK   56  A    between atoms: _130  and  _132
REMARK   57  A    between atoms: _132  and  _133
REMARK   58  A    between atoms: _132  and  _135
REMARK   59  A    between atoms: _135  and  _136
REMARK   60  A    between atoms: _139  and  _141
REMARK   61  A    between atoms: _141  and  _142
REMARK   62  A    between atoms: _141  and  _144
REMARK   63  A    between atoms: _144  and  _145
REMARK   64  A    between atoms: _145  and  _146
REMARK   65  A    between atoms: _146  and  _147
REMARK   66  A    between atoms: _156  and  _158
REMARK   67  A    between atoms: _158  and  _159
REMARK   68  A    between atoms: _158  and  _161
REMARK   69  A    between atoms: _161  and  _162
REMARK   70  A    between atoms: _165  and  _167
REMARK   71  A    between atoms: _167  and  _168
REMARK   72  A    between atoms: _167  and  _170
REMARK   73  A    between atoms: _170  and  _171
REMARK   74  A    between atoms: _171  and  _172
REMARK   75  A    between atoms: _177  and  _179
REMARK   76  A    between atoms: _179  and  _180
REMARK   77  A    between atoms: _179  and  _182
REMARK   78  A    between atoms: _182  and  _183
REMARK   79  A    between atoms: _186  and  _188
REMARK   80  A    between atoms: _188  and  _189
REMARK   81  A    between atoms: _188  and  _191
REMARK   82  A    between atoms: _191  and  _192
REMARK   83  A    between atoms: _195  and  _197
REMARK   84  A    between atoms: _197  and  _198
REMARK   85  A    between atoms: _197  and  _200
REMARK   86  A    between atoms: _203  and  _205
REMARK   87  A    between atoms: _205  and  _206
REMARK   88  A    between atoms: _205  and  _208
REMARK   89  A    between atoms: _208  and  _209
REMARK   90  A    between atoms: _209  and  _210
REMARK   91  A    between atoms: _210  and  _211
REMARK   92  A    between atoms: _220  and  _222
REMARK   93  A    between atoms: _222  and  _223
REMARK   94  A    between atoms: _222  and  _225
REMARK   95  A    between atoms: _225  and  _226
REMARK   96  A    between atoms: _229  and  _231
REMARK   97  A    between atoms: _231  and  _232
REMARK   98  A    between atoms: _231  and  _234
REMARK   99  A    between atoms: _234  and  _235
REMARK  100  A    between atoms: _237  and  _239
REMARK  101  A    between atoms: _239  and  _240
REMARK  102  A    between atoms: _239  and  _242
REMARK  103  A    between atoms: _245  and  _247
REMARK  104  A    between atoms: _247  and  _248
REMARK  105  A    between atoms: _247  and  _250
REMARK  106  A    between atoms: _252  and  _254
REMARK  107  A    between atoms: _254  and  _255
REMARK  108  A    between atoms: _254  and  _257
REMARK  109  A    between atoms: _257  and  _258
REMARK  110  A    between atoms: _263  and  _265
REMARK  111  A    between atoms: _265  and  _266
REMARK  112  A    between atoms: _269  and  _271
REMARK  113  A    between atoms: _271  and  _272
REMARK  114  A    between atoms: _274  and  _276
REMARK  115  A    between atoms: _276  and  _277
REMARK  116  A    between atoms: _276  and  _279
REMARK  117  A    between atoms: _279  and  _280
REMARK  118  A    between atoms: _283  and  _285
REMARK  119  A    between atoms: _285  and  _286
REMARK  120  A    between atoms: _288  and  _290
REMARK  121  A    between atoms: _290  and  _291
REMARK  122  A    between atoms: _290  and  _293
REMARK  123  A    between atoms: _293  and  _294
REMARK  124  A    between atoms: _297  and  _299
REMARK  125  A    between atoms: _299  and  _300
REMARK  126  A    between atoms: _299  and  _302
REMARK  127  A    between atoms: _302  and  _303
REMARK  128  A    between atoms: _306  and  _308
REMARK  129  A    between atoms: _308  and  _309
REMARK  130  A    between atoms: _308  and  _311
REMARK  131  A    between atoms: _311  and  _312
REMARK  132  A    between atoms: _314  and  _316
REMARK  133  A    between atoms: _316  and  _317
REMARK  134  A    between atoms: _316  and  _319
REMARK  135  A    between atoms: _319  and  _320
REMARK  136  A    between atoms: _323  and  _325
REMARK  137  A    between atoms: _325  and  _326
REMARK  138  A    between atoms: _325  and  _328
REMARK  139  A    between atoms: _331  and  _333
REMARK  140  A    between atoms: _333  and  _334
REMARK  141  A    between atoms: _333  and  _336
REMARK  142  A    between atoms: _336  and  _337
REMARK  143  A    between atoms: _342  and  _344
REMARK  144  A    between atoms: _344  and  _345
REMARK  145  A    between atoms: _347  and  _349
REMARK  146  A    between atoms: _349  and  _350
REMARK  147  A    between atoms: _349  and  _352
REMARK  148  A    between atoms: _352  and  _353
REMARK  149  A    between atoms: _353  and  _354
REMARK  150  A    between atoms: _354  and  _355
REMARK  151  A    between atoms: _364  and  _366
REMARK  152  A    between atoms: _366  and  _367
REMARK  153  A    between atoms: _366  and  _369
REMARK  154  A    between atoms: _369  and  _370
REMARK  155  A    between atoms: _370  and  _371
REMARK  156  A    between atoms: _373  and  _375
REMARK  157  A    between atoms: _375  and  _376
REMARK  158  A    between atoms: _375  and  _378
REMARK  159  A    between atoms: _378  and  _379
REMARK  160  A    between atoms: _382  and  _384
REMARK  161  A    between atoms: _384  and  _385
REMARK  162  A    between atoms: _387  and  _389
REMARK  163  A    between atoms: _389  and  _390
REMARK  164  A    between atoms: _389  and  _392
REMARK  165  A    between atoms: _392  and  _393
REMARK  166  A    between atoms: _395  and  _397
REMARK  167  A    between atoms: _397  and  _398
REMARK  168  A    between atoms: _397  and  _400
REMARK  169  A    between atoms: _403  and  _405
REMARK  170  A    between atoms: _405  and  _406
REMARK  171  A    between atoms: _408  and  _410
REMARK  172  A    between atoms: _410  and  _411
REMARK  173  A    between atoms: _413  and  _415
REMARK  174  A    between atoms: _415  and  _416
REMARK  175  A    between atoms: _415  and  _418
REMARK  176  A    between atoms: _418  and  _419
REMARK  177  A    between atoms: _422  and  _424
REMARK  178  A    between atoms: _424  and  _425
REMARK  179  A    between atoms: _424  and  _427
REMARK  180  A    between atoms: _427  and  _428
REMARK  181  A    between atoms: _428  and  _429
REMARK  182  A    between atoms: _431  and  _433
REMARK  183  A    between atoms: _433  and  _434
REMARK  184  A    between atoms: _436  and  _438
REMARK  185  A    between atoms: _438  and  _439
REMARK  186  A    between atoms: _438  and  _441
REMARK  187  A    between atoms: _441  and  _442
REMARK  188  A    between atoms: _446  and  _447
REMARK  189  A    between atoms: _452  and  _454
REMARK  190  A    between atoms: _454  and  _455
REMARK  191  A    between atoms: _454  and  _457
REMARK  192  A    between atoms: _457  and  _458
REMARK  193  A    between atoms: _463  and  _465
REMARK  194  A    between atoms: _465  and  _466
REMARK  195  A    between atoms: _465  and  _468
REMARK  196  A    between atoms: _468  and  _469
REMARK  197  A    between atoms: _474  and  _475
REMARK  198  A    between atoms: _477  and  _479
REMARK  199  A    between atoms: _479  and  _480
REMARK  200  A    between atoms: _479  and  _482
REMARK  201  A    between atoms: _484  and  _486
REMARK  202  A    between atoms: _486  and  _487
REMARK  203  A    between atoms: _486  and  _489
REMARK  204  A    between atoms: _489  and  _490
REMARK  205  A    between atoms: _490  and  _491
REMARK  206  A    between atoms: _491  and  _492
REMARK  207  A    between atoms: _492  and  _493
REMARK  208  A    between atoms: _497  and  _499
REMARK  209  A    between atoms: _499  and  _500
REMARK  210  A    between atoms: _499  and  _502
REMARK  211  A    between atoms: _502  and  _503
REMARK  212  A    between atoms: _503  and  _504
REMARK  213  A    between atoms: _507  and  _509
REMARK  214  A    between atoms: _509  and  _510
REMARK  215  A    between atoms: _509  and  _512
REMARK  216  A    between atoms: _514  and  _516
REMARK  217  A    between atoms: _516  and  _517
REMARK  218  A    between atoms: _520  and  _521
REMARK  219  A    between atoms: _526  and  _528
REMARK  220  A    between atoms: _528  and  _529
REMARK  221  A    between atoms: _528  and  _531
REMARK  222  A    between atoms: _534  and  _536
REMARK  223  A    between atoms: _536  and  _537
REMARK  224  A    between atoms: _536  and  _539
REMARK  225  A    between atoms: _539  and  _540
REMARK  226  A    between atoms: _543  and  _545
REMARK  227  A    between atoms: _545  and  _546
REMARK  228  A    between atoms: _545  and  _548
REMARK  229  A    between atoms: _548  and  _549
REMARK  230  A    between atoms: _555  and  _557
REMARK  231  A    between atoms: _557  and  _558
REMARK  232  A    between atoms: _557  and  _560
REMARK  233  A    between atoms: _560  and  _561
REMARK  234  A    between atoms: _561  and  _562
REMARK  235  A    between atoms: _564  and  _566
REMARK  236  A    between atoms: _566  and  _567
REMARK  237  A    between atoms: _566  and  _569
REMARK  238  A    between atoms: _569  and  _570
REMARK  239  A    between atoms: _570  and  _571
REMARK  240  A    between atoms: _574  and  _576
REMARK  241  A    between atoms: _576  and  _577
REMARK  242  A    between atoms: _576  and  _579
REMARK  243  A    between atoms: _579  and  _580
REMARK  244  A    between atoms: _580  and  _581
REMARK  245  A    between atoms: _581  and  _582
REMARK  246  A    between atoms: _582  and  _583
REMARK  247  A    between atoms: _587  and  _589
REMARK  248  A    between atoms: _589  and  _590
REMARK  249  A    between atoms: _589  and  _592
REMARK  250  A    between atoms: _592  and  _593
REMARK  251  A    between atoms: _598  and  _599
REMARK  252  A    between atoms: _601  and  _603
REMARK  253  A    between atoms: _603  and  _604
REMARK  254  A    between atoms: _603  and  _606
REMARK  255  A    between atoms: _606  and  _607
REMARK  256  A    between atoms: _610  and  _612
REMARK  257  A    between atoms: _612  and  _613
REMARK  258  A    between atoms: _612  and  _615
REMARK  259  A    between atoms: _615  and  _616
REMARK  260  A    between atoms: _621  and  _623
REMARK  261  A    between atoms: _623  and  _624
REMARK  262  A    between atoms: _623  and  _626
REMARK  263  A    between atoms: _626  and  _627
REMARK  264  A    between atoms: _629  and  _631
REMARK  265  A    between atoms: _631  and  _632
REMARK  266  A    between atoms: _631  and  _634
REMARK  267  A    between atoms: _634  and  _635
REMARK  268  A    between atoms: _635  and  _636
REMARK  269  A    between atoms: _636  and  _637
REMARK  270  A    between atoms: _637  and  _638
REMARK  271  A    between atoms: _642  and  _644
REMARK  272  A    between atoms: _644  and  _645
REMARK  273  A    between atoms: _644  and  _647
REMARK  274  A    between atoms: _647  and  _648
REMARK  275  A    between atoms: _648  and  _649
REMARK  276  A    between atoms: _654  and  _656
REMARK  277  A    between atoms: _656  and  _657
REMARK  278  A    between atoms: _656  and  _659
REMARK  279  A    between atoms: _662  and  _664
REMARK  280  A    between atoms: _664  and  _665
REMARK  281  A    between atoms: _664  and  _667
REMARK  282  A    between atoms: _667  and  _668
REMARK  283  A    between atoms: _674  and  _676
REMARK  284  A    between atoms: _676  and  _677
REMARK  285  A    between atoms: _680  and  _682
REMARK  286  A    between atoms: _682  and  _683
REMARK  287  A    between atoms: _682  and  _685
REMARK  288  A    between atoms: _685  and  _686
REMARK  289  A    between atoms: _689  and  _691
REMARK  290  A    between atoms: _691  and  _692
REMARK  291  A    between atoms: _691  and  _694
REMARK  292  A    between atoms: _694  and  _695
REMARK  293  A    between atoms: _695  and  _696
REMARK  294  A    between atoms: _696  and  _697
REMARK  295  A    between atoms: _706  and  _708
REMARK  296  A    between atoms: _708  and  _709
REMARK  297  A    between atoms: _708  and  _711
REMARK  298  A    between atoms: _711  and  _712
REMARK  299  A    between atoms: _718  and  _720
REMARK  300  A    between atoms: _720  and  _721
REMARK  301  A    between atoms: _720  and  _723
REMARK  302  A    between atoms: _723  and  _724
REMARK  303  A    between atoms: _727  and  _729
REMARK  304  A    between atoms: _729  and  _730
REMARK  305  A    between atoms: _729  and  _732
REMARK  306  A    between atoms: _732  and  _733
REMARK  307  A    between atoms: _738  and  _739
REMARK  308  A    between atoms: _741  and  _743
REMARK  309  A    between atoms: _743  and  _744
REMARK  310  A    between atoms: _747  and  _749
REMARK  311  A    between atoms: _749  and  _750
REMARK  312  A    between atoms: _749  and  _752
REMARK  313  A    between atoms: _752  and  _753
REMARK  314  A    between atoms: _753  and  _754
REMARK  315  A    between atoms: _756  and  _758
REMARK  316  A    between atoms: _758  and  _759
REMARK  317  A    between atoms: _758  and  _761
REMARK  318  A    between atoms: _761  and  _762
REMARK  319  A    between atoms: _767  and  _769
REMARK  320  A    between atoms: _769  and  _770
REMARK  321  A    between atoms: _769  and  _772
REMARK  322  A    between atoms: _772  and  _773
REMARK  323  A    between atoms: _773  and  _774
REMARK  324  A    between atoms: _774  and  _775
REMARK  325  A    between atoms: _784  and  _786
REMARK  326  A    between atoms: _786  and  _787
REMARK  327  A    between atoms: _786  and  _789
REMARK  328  A    between atoms: _789  and  _790
REMARK  329  A    between atoms: _790  and  _791
REMARK  330  A    between atoms: _794  and  _796
REMARK  331  A    between atoms: _796  and  _797
REMARK  332  A    between atoms: _796  and  _799
REMARK  333  A    between atoms: _802  and  _804
REMARK  334  A    between atoms: _804  and  _805
REMARK  335  A    between atoms: _804  and  _807
REMARK  336  A    between atoms: _807  and  _808
REMARK                            x       y       z     vdW  Elec       q    Type
REMARK                         _______ _______ _______ _____ _____    ______ ____
ROOT
ATOM      1  NE  ARG A   1      26.917  -4.250  -7.292  0.00  0.00    -0.265 N 
ATOM      2  HE  ARG A   1      27.836  -3.877  -6.980  0.00  0.00    +0.259 HD
ATOM      3  CZ  ARG A   1      25.930  -3.376  -7.448  0.00  0.00    +0.342 C 
ATOM      4  NH2 ARG A   1      26.183  -2.097  -7.201  0.00  0.00    -0.292 N 
ATOM      5 HH21 ARG A   1      27.133  -1.805  -6.895  0.00  0.00    +0.255 HD
ATOM      6 HH22 ARG A   1      25.431  -1.387  -7.314  0.00  0.00    +0.255 HD
ATOM      7  NH1 ARG A   1      24.724  -3.762  -7.830  0.00  0.00    -0.292 N 
ATOM      8 HH11 ARG A   1      23.966  -3.060  -7.946  0.00  0.00    +0.255 HD
ATOM      9 HH12 ARG A   1      24.534  -4.768  -8.015  0.00  0.00    +0.255 HD
ENDROOT
BRANCH   1  10
ATOM     10  CD  ARG A   1      26.826  -5.686  -7.520  0.00  0.00    +0.174 C 
BRANCH  10  11
ATOM     11  CG  ARG A   1      27.958  -6.426  -6.802  0.00  0.00    +0.045 C 
BRANCH  11  12
ATOM     12  CB  ARG A   1      27.904  -6.079  -5.323  0.00  0.00    +0.029 C 
BRANCH  12  13
ATOM     13  CA  ARG A   1      28.980  -6.731  -4.469  0.00  0.00    +0.133 C 
BRANCH  13  14
ATOM     14  N   ARG A   1      28.720  -8.154  -4.225  0.00  0.00    -0.239 NA
ATOM     15  H   ARG A   1      27.827  -8.592  -4.527  0.00  0.00    +0.142 HD
ENDBRANCH  13  14
BRANCH  13  16
ATOM     16  C   ARG A   1      29.133  -5.989  -3.152  0.00  0.00    +0.224 C 
ATOM     17  O   ARG A   1      29.947  -5.084  -3.015  0.00  0.00    -0.287 OA
ENDBRANCH  13  16
ENDBRANCH  12  13
ENDBRANCH  11  12
ENDBRANCH  10  11
ENDBRANCH   1  10
TORSDOF 6
REMARK  Name = ../refined-set-2016/1i5r/1i5r_pocket.pdb
REMARK  336 active torsions:
REMARK  status: ('A' for Active; 'I' for Inactive)
REMARK    1  A    between atoms: _1  and  _3
REMARK    2  A    between atoms: _3  and  _4
REMARK    3  A    between atoms: _3  and  _6
REMARK    4  A    between atoms: _6  and  _7
REMARK    5  A    between atoms: _10  and  _12
REMARK    6  A    between atoms: _12  and  _13
REMARK    7  A    between atoms: _12  and  _15
REMARK    8  A    between atoms: _15  and  _16
REMARK    9  A    between atoms: _19  and  _21
REMARK   10  A    between atoms: _21  and  _22
REMARK   11  A    between atoms: _24  and  _26
REMARK   12  A    between atoms: _26  and  _27
REMARK   13  A    between atoms: _26  and  _29
REMARK   14  A    between atoms: _31  and  _33
REMARK   15  A    between atoms: _33  and  _34
REMARK   16  A    between atoms: _33  and  _36
REMARK   17  A    between atoms: _36  and  _37
REMARK   18  A    between atoms: _39  and  _41
REMARK   19  A    between atoms: _41  and  _42
REMARK   20  A    between atoms: _41  and  _44
REMARK   21  A    between atoms: _44  and  _45
REMARK   22  A    between atoms: _47  and  _49
REMARK   23  A    between atoms: _49  and  _50
REMARK   24  A    between atoms: _52  and  _54
REMARK   25  A    between atoms: _54  and  _55
REMARK   26  A    between atoms: _54  and  _57
REMARK   27  A    between atoms: _57  and  _58
REMARK   28  A    between atoms: _61  and  _63
REMARK   29  A    between atoms: _63  and  _64
REMARK   30  A    between atoms: _66  and  _68
REMARK   31  A    between atoms: _68  and  _69
REMARK   32  A    between atoms: _68  and  _71
REMARK   33  A    between atoms: _71  and  _72
REMARK   34  A    between atoms: _75  and  _77
REMARK   35  A    between atoms: _77  and  _78
REMARK   36  A    between atoms: _77  and  _80
REMARK   37  A    between atoms: _80  and  _81
REMARK   38  A    between atoms: _86  and  _88
REMARK   39  A    between atoms: _88  and  _89
REMARK   40  A    between atoms: _88  and  _91
REMARK   41  A    between atoms: _91  and  _92
REMARK   42  A    between atoms: _95  and  _97
REMARK   43  A    between atoms: _97  and  _98
REMARK   44  A    between atoms: _97  and  _100
REMARK   45  A    between atoms: _100  and  _101
REMARK   46  A    between atoms: _104  and  _106
REMARK   47  A    between atoms: _106  and  _107
REMARK   48  A    between atoms: _106  and  _109
REMARK   49  A    between atoms: _109  and  _110
REMARK   50  A    between atoms: _110  and  _111
REMARK   51  A    between atoms: _111  and  _112
REMARK   52  A    between atoms: _121  and  _123
REMARK   53  A    between atoms: _123  and  _124
REMARK   54  A    between atoms: _123  and  _126
REMARK   55  A    between atoms: _126  and  _127
REMARK   56  A    between atoms: _130  and  _132
REMARK   57  A    between atoms: _132  and  _133
REMARK   58  A    between atoms: _132  and  _135
REMARK   59  A    between atoms: _135  and  _136
REMARK   60  A    between atoms: _139  and  _141
REMARK   61  A    between atoms: _141  and  _142
REMARK   62  A    between atoms: _141  and  _144
REMARK   63  A    between atoms: _144  and  _145
REMARK   64  A    between atoms: _145  and  _146
REMARK   65  A    between atoms: _146  and  _147
REMARK   66  A    between atoms: _156  and  _158
REMARK   67  A    between atoms: _158  and  _159
REMARK   68  A    between atoms: _158  and  _161
REMARK   69  A    between atoms: _161  and  _162
REMARK   70  A    between atoms: _165  and  _167
REMARK   71  A    between atoms: _167  and  _168
REMARK   72  A    between atoms: _167  and  _170
REMARK   73  A    between atoms: _170  and  _171
REMARK   74  A    between atoms: _171  and  _172
REMARK   75  A    between atoms: _177  and  _179
REMARK   76  A    between atoms: _179  and  _180
REMARK   77  A    between atoms: _179  and  _182
REMARK   78  A    between atoms: _182  and  _183
REMARK   79  A    between atoms: _186  and  _188
REMARK   80  A    between atoms: _188  and  _189
REMARK   81  A    between atoms: _188  and  _191
REMARK   82  A    between atoms: _191  and  _192
REMARK   83  A    between atoms: _195  and  _197
REMARK   84  A    between atoms: _197  and  _198
REMARK   85  A    between atoms: _197  and  _200
REMARK   86  A    between atoms: _203  and  _205
REMARK   87  A    between atoms: _205  and  _206
REMARK   88  A    between atoms: _205  and  _208
REMARK   89  A    between atoms: _208  and  _209
REMARK   90  A    between atoms: _209  and  _210
REMARK   91  A    between atoms: _210  and  _211
REMARK   92  A    between atoms: _220  and  _222
REMARK   93  A    between atoms: _222  and  _223
REMARK   94  A    between atoms: _222  and  _225
REMARK   95  A    between atoms: _225  and  _226
REMARK   96  A    between atoms: _229  and  _231
REMARK   97  A    between atoms: _231  and  _232
REMARK   98  A    between atoms: _231  and  _234
REMARK   99  A    between atoms: _234  and  _235
REMARK  100  A    between atoms: _237  and  _239
REMARK  101  A    between atoms: _239  and  _240
REMARK  102  A    between atoms: _239  and  _242
REMARK  103  A    between atoms: _245  and  _247
REMARK  104  A    between atoms: _247  and  _248
REMARK  105  A    between atoms: _247  and  _250
REMARK  106  A    between atoms: _252  and  _254
REMARK  107  A    between atoms: _254  and  _255
REMARK  108  A    between atoms: _254  and  _257
REMARK  109  A    between atoms: _257  and  _258
REMARK  110  A    between atoms: _263  and  _265
REMARK  111  A    between atoms: _265  and  _266
REMARK  112  A    between atoms: _269  and  _271
REMARK  113  A    between atoms: _271  and  _272
REMARK  114  A    between atoms: _274  and  _276
REMARK  115  A    between atoms: _276  and  _277
REMARK  116  A    between atoms: _276  and  _279
REMARK  117  A    between atoms: _279  and  _280
REMARK  118  A    between atoms: _283  and  _285
REMARK  119  A    between atoms: _285  and  _286
REMARK  120  A    between atoms: _288  and  _290
REMARK  121  A    between atoms: _290  and  _291
REMARK  122  A    between atoms: _290  and  _293
REMARK  123  A    between atoms: _293  and  _294
REMARK  124  A    between atoms: _297  and  _299
REMARK  125  A    between atoms: _299  and  _300
REMARK  126  A    between atoms: _299  and  _302
REMARK  127  A    between atoms: _302  and  _303
REMARK  128  A    between atoms: _306  and  _308
REMARK  129  A    between atoms: _308  and  _309
REMARK  130  A    between atoms: _308  and  _311
REMARK  131  A    between atoms: _311  and  _312
REMARK  132  A    between atoms: _314  and  _316
REMARK  133  A    between atoms: _316  and  _317
REMARK  134  A    between atoms: _316  and  _319
REMARK  135  A    between atoms: _319  and  _320
REMARK  136  A    between atoms: _323  and  _325
REMARK  137  A    between atoms: _325  and  _326
REMARK  138  A    between atoms: _325  and  _328
REMARK  139  A    between atoms: _331  and  _333
REMARK  140  A    between atoms: _333  and  _334
REMARK  141  A    between atoms: _333  and  _336
REMARK  142  A    between atoms: _336  and  _337
REMARK  143  A    between atoms: _342  and  _344
REMARK  144  A    between atoms: _344  and  _345
REMARK  145  A    between atoms: _347  and  _349
REMARK  146  A    between atoms: _349  and  _350
REMARK  147  A    between atoms: _349  and  _352
REMARK  148  A    between atoms: _352  and  _353
REMARK  149  A    between atoms: _353  and  _354
REMARK  150  A    between atoms: _354  and  _355
REMARK  151  A    between atoms: _364  and  _366
REMARK  152  A    between atoms: _366  and  _367
REMARK  153  A    between atoms: _366  and  _369
REMARK  154  A    between atoms: _369  and  _370
REMARK  155  A    between atoms: _370  and  _371
REMARK  156  A    between atoms: _373  and  _375
REMARK  157  A    between atoms: _375  and  _376
REMARK  158  A    between atoms: _375  and  _378
REMARK  159  A    between atoms: _378  and  _379
REMARK  160  A    between atoms: _382  and  _384
REMARK  161  A    between atoms: _384  and  _385
REMARK  162  A    between atoms: _387  and  _389
REMARK  163  A    between atoms: _389  and  _390
REMARK  164  A    between atoms: _389  and  _392
REMARK  165  A    between atoms: _392  and  _393
REMARK  166  A    between atoms: _395  and  _397
REMARK  167  A    between atoms: _397  and  _398
REMARK  168  A    between atoms: _397  and  _400
REMARK  169  A    between atoms: _403  and  _405
REMARK  170  A    between atoms: _405  and  _406
REMARK  171  A    between atoms: _408  and  _410
REMARK  172  A    between atoms: _410  and  _411
REMARK  173  A    between atoms: _413  and  _415
REMARK  174  A    between atoms: _415  and  _416
REMARK  175  A    between atoms: _415  and  _418
REMARK  176  A    between atoms: _418  and  _419
REMARK  177  A    between atoms: _422  and  _424
REMARK  178  A    between atoms: _424  and  _425
REMARK  179  A    between atoms: _424  and  _427
REMARK  180  A    between atoms: _427  and  _428
REMARK  181  A    between atoms: _428  and  _429
REMARK  182  A    between atoms: _431  and  _433
REMARK  183  A    between atoms: _433  and  _434
REMARK  184  A    between atoms: _436  and  _438
REMARK  185  A    between atoms: _438  and  _439
REMARK  186  A    between atoms: _438  and  _441
REMARK  187  A    between atoms: _441  and  _442
REMARK  188  A    between atoms: _446  and  _447
REMARK  189  A    between atoms: _452  and  _454
REMARK  190  A    between atoms: _454  and  _455
REMARK  191  A    between atoms: _454  and  _457
REMARK  192  A    between atoms: _457  and  _458
REMARK  193  A    between atoms: _463  and  _465
REMARK  194  A    between atoms: _465  and  _466
REMARK  195  A    between atoms: _465  and  _468
REMARK  196  A    between atoms: _468  and  _469
REMARK  197  A    between atoms: _474  and  _475
REMARK  198  A    between atoms: _477  and  _479
REMARK  199  A    between atoms: _479  and  _480
REMARK  200  A    between atoms: _479  and  _482
REMARK  201  A    between atoms: _484  and  _486
REMARK  202  A    between atoms: _486  and  _487
REMARK  203  A    between atoms: _486  and  _489
REMARK  204  A    between atoms: _489  and  _490
REMARK  205  A    between atoms: _490  and  _491
REMARK  206  A    between atoms: _491  and  _492
REMARK  207  A    between atoms: _492  and  _493
REMARK  208  A    between atoms: _497  and  _499
REMARK  209  A    between atoms: _499  and  _500
REMARK  210  A    between atoms: _499  and  _502
REMARK  211  A    between atoms: _502  and  _503
REMARK  212  A    between atoms: _503  and  _504
REMARK  213  A    between atoms: _507  and  _509
REMARK  214  A    between atoms: _509  and  _510
REMARK  215  A    between atoms: _509  and  _512
REMARK  216  A    between atoms: _514  and  _516
REMARK  217  A    between atoms: _516  and  _517
REMARK  218  A    between atoms: _520  and  _521
REMARK  219  A    between atoms: _526  and  _528
REMARK  220  A    between atoms: _528  and  _529
REMARK  221  A    between atoms: _528  and  _531
REMARK  222  A    between atoms: _534  and  _536
REMARK  223  A    between atoms: _536  and  _537
REMARK  224  A    between atoms: _536  and  _539
REMARK  225  A    between atoms: _539  and  _540
REMARK  226  A    between atoms: _543  and  _545
REMARK  227  A    between atoms: _545  and  _546
REMARK  228  A    between atoms: _545  and  _548
REMARK  229  A    between atoms: _548  and  _549
REMARK  230  A    between atoms: _555  and  _557
REMARK  231  A    between atoms: _557  and  _558
REMARK  232  A    between atoms: _557  and  _560
REMARK  233  A    between atoms: _560  and  _561
REMARK  234  A    between atoms: _561  and  _562
REMARK  235  A    between atoms: _564  and  _566
REMARK  236  A    between atoms: _566  and  _567
REMARK  237  A    between atoms: _566  and  _569
REMARK  238  A    between atoms: _569  and  _570
REMARK  239  A    between atoms: _570  and  _571
REMARK  240  A    between atoms: _574  and  _576
REMARK  241  A    between atoms: _576  and  _577
REMARK  242  A    between atoms: _576  and  _579
REMARK  243  A    between atoms: _579  and  _580
REMARK  244  A    between atoms: _580  and  _581
REMARK  245  A    between atoms: _581  and  _582
REMARK  246  A    between atoms: _582  and  _583
REMARK  247  A    between atoms: _587  and  _589
REMARK  248  A    between atoms: _589  and  _590
REMARK  249  A    between atoms: _589  and  _592
REMARK  250  A    between atoms: _592  and  _593
REMARK  251  A    between atoms: _598  and  _599
REMARK  252  A    between atoms: _601  and  _603
REMARK  253  A    between atoms: _603  and  _604
REMARK  254  A    between atoms: _603  and  _606
REMARK  255  A    between atoms: _606  and  _607
REMARK  256  A    between atoms: _610  and  _612
REMARK  257  A    between atoms: _612  and  _613
REMARK  258  A    between atoms: _612  and  _615
REMARK  259  A    between atoms: _615  and  _616
REMARK  260  A    between atoms: _621  and  _623
REMARK  261  A    between atoms: _623  and  _624
REMARK  262  A    between atoms: _623  and  _626
REMARK  263  A    between atoms: _626  and  _627
REMARK  264  A    between atoms: _629  and  _631
REMARK  265  A    between atoms: _631  and  _632
REMARK  266  A    between atoms: _631  and  _634
REMARK  267  A    between atoms: _634  and  _635
REMARK  268  A    between atoms: _635  and  _636
REMARK  269  A    between atoms: _636  and  _637
REMARK  270  A    between atoms: _637  and  _638
REMARK  271  A    between atoms: _642  and  _644
REMARK  272  A    between atoms: _644  and  _645
REMARK  273  A    between atoms: _644  and  _647
REMARK  274  A    between atoms: _647  and  _648
REMARK  275  A    between atoms: _648  and  _649
REMARK  276  A    between atoms: _654  and  _656
REMARK  277  A    between atoms: _656  and  _657
REMARK  278  A    between atoms: _656  and  _659
REMARK  279  A    between atoms: _662  and  _664
REMARK  280  A    between atoms: _664  and  _665
REMARK  281  A    between atoms: _664  and  _667
REMARK  282  A    between atoms: _667  and  _668
REMARK  283  A    between atoms: _674  and  _676
REMARK  284  A    between atoms: _676  and  _677
REMARK  285  A    between atoms: _680  and  _682
REMARK  286  A    between atoms: _682  and  _683
REMARK  287  A    between atoms: _682  and  _685
REMARK  288  A    between atoms: _685  and  _686
REMARK  289  A    between atoms: _689  and  _691
REMARK  290  A    between atoms: _691  and  _692
REMARK  291  A    between atoms: _691  and  _694
REMARK  292  A    between atoms: _694  and  _695
REMARK  293  A    between atoms: _695  and  _696
REMARK  294  A    between atoms: _696  and  _697
REMARK  295  A    between atoms: _706  and  _708
REMARK  296  A    between atoms: _708  and  _709
REMARK  297  A    between atoms: _708  and  _711
REMARK  298  A    between atoms: _711  and  _712
REMARK  299  A    between atoms: _718  and  _720
REMARK  300  A    between atoms: _720  and  _721
REMARK  301  A    between atoms: _720  and  _723
REMARK  302  A    between atoms: _723  and  _724
REMARK  303  A    between atoms: _727  and  _729
REMARK  304  A    between atoms: _729  and  _730
REMARK  305  A    between atoms: _729  and  _732
REMARK  306  A    between atoms: _732  and  _733
REMARK  307  A    between atoms: _738  and  _739
REMARK  308  A    between atoms: _741  and  _743
REMARK  309  A    between atoms: _743  and  _744
REMARK  310  A    between atoms: _747  and  _749
REMARK  311  A    between atoms: _749  and  _750
REMARK  312  A    between atoms: _749  and  _752
REMARK  313  A    between atoms: _752  and  _753
REMARK  314  A    between atoms: _753  and  _754
REMARK  315  A    between atoms: _756  and  _758
REMARK  316  A    between atoms: _758  and  _759
REMARK  317  A    between atoms: _758  and  _761
REMARK  318  A    between atoms: _761  and  _762
REMARK  319  A    between atoms: _767  and  _769
REMARK  320  A    between atoms: _769  and  _770
REMARK  321  A    between atoms: _769  and  _772
REMARK  322  A    between atoms: _772  and  _773
REMARK  323  A    between atoms: _773  and  _774
REMARK  324  A    between atoms: _774  and  _775
REMARK  325  A    between atoms: _784  and  _786
REMARK  326  A    between atoms: _786  and  _787
REMARK  327  A    between atoms: _786  and  _789
REMARK  328  A    between atoms: _789  and  _790
REMARK  329  A    between atoms: _790  and  _791
REMARK  330  A    between atoms: _794  and  _796
REMARK  331  A    between atoms: _796  and  _797
REMARK  332  A    between atoms: _796  and  _799
REMARK  333  A    between atoms: _802  and  _804
REMARK  334  A    between atoms: _804  and  _805
REMARK  335  A    between atoms: _804  and  _807
REMARK  336  A    between atoms: _807  and  _808
REMARK                            x       y       z     vdW  Elec       q    Type
REMARK                         _______ _______ _______ _____ _____    ______ ____
ROOT
ATOM      1  CA  ASP A   4      14.113 -12.169   3.294  0.00  0.00    +0.160 C 
ENDROOT
BRANCH   1   2
ATOM      2  C   ASP A   4      12.921 -11.550   3.999  0.00  0.00    +0.241 C 
ATOM      3  O   ASP A   4      12.305 -12.206   4.845  0.00  0.00    -0.273 OA
ATOM      4  N   VAL A   5      12.573 -10.311   3.662  0.00  0.00    -0.297 N 
ATOM      5  H   VAL A   5      13.080  -9.809   2.905  0.00  0.00    +0.150 HD
BRANCH   4   6
ATOM      6  CA  VAL A   5      11.470  -9.665   4.368  0.00  0.00    +0.149 C 
BRANCH   6   7
ATOM      7  C   VAL A   5      10.117 -10.274   4.071  0.00  0.00    +0.241 C 
ATOM      8  O   VAL A   5       9.170  -9.874   4.715  0.00  0.00    -0.273 OA
ATOM      9  N   ARG A   6      10.028 -11.233   3.154  0.00  0.00    -0.297 N 
ATOM     10  H   ARG A   6      10.872 -11.507   2.612  0.00  0.00    +0.150 HD
BRANCH   9  11
ATOM     11  CA  ARG A   6       8.756 -11.905   2.900  0.00  0.00    +0.149 C 
BRANCH  11  12
ATOM     12  C   ARG A   6       8.519 -12.971   3.969  0.00  0.00    +0.241 C 
ATOM     13  N   ASP A   7       9.581 -13.297   4.688  0.00  0.00    -0.298 N 
ATOM     14  H   ASP A   7      10.464 -12.759   4.574  0.00  0.00    +0.150 HD
ATOM     15  O   ARG A   6       7.431 -13.509   4.105  0.00  0.00    -0.273 OA
BRANCH  13  16
ATOM     16  CA  ASP A   7       9.528 -14.405   5.640  0.00  0.00    +0.148 C 
BRANCH  16  17
ATOM     17  C   ASP A   7       9.799 -13.928   7.037  0.00  0.00    +0.227 C 
ATOM     18  O   ASP A   7      10.937 -13.642   7.405  0.00  0.00    -0.286 OA
ENDBRANCH  16  17
BRANCH  16  19
ATOM     19  CB  ASP A   7      10.591 -15.392   5.161  0.00  0.00    +0.142 C 
BRANCH  19  20
ATOM     20  CG  ASP A   7      10.648 -16.654   6.004  0.00  0.00    +0.367 C 
ATOM     21  OD2 ASP A   7       9.932 -16.753   7.002  0.00  0.00    -0.246 OA
ATOM     22  OD1 ASP A   7      11.462 -17.497   5.567  0.00  0.00    -0.246 OA
ENDBRANCH  19  20
ENDBRANCH  16  19
ENDBRANCH  13  16
ENDBRANCH  11  12
BRANCH  11  23
ATOM     23  CB  ARG A   6       8.866 -12.619   1.555  0.00  0.00    +0.033 C 
BRANCH  23  24
ATOM     24  CG  ARG A   6       9.002 -11.622   0.411  0.00  0.00    +0.045 C 
BRANCH  24  25
ATOM     25  CD  ARG A   6       9.222 -12.373  -0.894  0.00  0.00    +0.174 C 
BRANCH  25  26
ATOM     26  NE  ARG A   6      10.486 -13.120  -0.829  0.00  0.00    -0.265 N 
ATOM     27  HE  ARG A   6      11.076 -13.046   0.024  0.00  0.00    +0.259 HD
ATOM     28  CZ  ARG A   6      10.893 -13.888  -1.835  0.00  0.00    +0.342 C 
ATOM     29  NH2 ARG A   6      12.029 -14.550  -1.703  0.00  0.00    -0.292 N 
ATOM     30 HH21 ARG A   6      12.583 -14.463  -0.827  0.00  0.00    +0.255 HD
ATOM     31 HH22 ARG A   6      12.370 -15.158  -2.475  0.00  0.00    +0.255 HD
ATOM     32  NH1 ARG A   6      10.166 -14.014  -2.936  0.00  0.00    -0.292 N 
ATOM     33 HH11 ARG A   6       9.262 -13.508  -3.023  0.00  0.00    +0.255 HD
ATOM     34 HH12 ARG A   6      10.500 -14.619  -3.713  0.00  0.00    +0.255 HD
ENDBRANCH  25  26
ENDBRANCH  24  25
ENDBRANCH  23  24
ENDBRANCH  11  23
ENDBRANCH   9  11
ENDBRANCH   6   7
BRANCH   6  35
ATOM     35  CB  VAL A   5      11.423  -8.155   4.081  0.00  0.00    +0.027 C 
ATOM     36  CG2 VAL A   5      12.740  -7.523   4.503  0.00  0.00    +0.002 C 
ATOM     37  CG1 VAL A   5      11.126  -7.918   2.610  0.00  0.00    +0.002 C 
ENDBRANCH   6  35
ENDBRANCH   4   6
ENDBRANCH   1   2
BRANCH   1  39
ATOM     38  C   LEU A   3      16.046 -11.402   4.509  0.00  0.00    +0.241 C 
ATOM     39  N   ASP A   4      15.082 -12.299   4.381  0.00  0.00    -0.297 N 
ATOM     40  H   ASP A   4      15.014 -13.092   5.050  0.00  0.00    +0.150 HD
ATOM     41  O   LEU A   3      16.270 -10.473   3.756  0.00  0.00    -0.273 OA
BRANCH  38  42
ATOM     42  CA  LEU A   3      16.950 -11.688   5.694  0.00  0.00    +0.149 C 
BRANCH  42  45
ATOM     43  C   GLN A   2      18.951 -12.988   5.870  0.00  0.00    +0.241 C 
ATOM     44  O   GLN A   2      18.732 -13.162   7.061  0.00  0.00    -0.273 OA
ATOM     45  N   LEU A   3      18.165 -12.246   5.114  0.00  0.00    -0.297 N 
ATOM     46  H   LEU A   3      18.408 -12.062   4.120  0.00  0.00    +0.150 HD
BRANCH  43  47
ATOM     47  CA  GLN A   2      20.182 -13.555   5.153  0.00  0.00    +0.149 C 
BRANCH  47  49
ATOM     48  C   LEU A   1      21.785 -12.118   6.162  0.00  0.00    +0.238 C 
ATOM     49  N   GLN A   2      21.267 -13.328   6.092  0.00  0.00    -0.297 N 
ATOM     50  H   GLN A   2      21.625 -14.098   6.692  0.00  0.00    +0.150 HD
ATOM     51  O   LEU A   1      21.568 -11.182   5.391  0.00  0.00    -0.274 OA
BRANCH  48  52
ATOM     52  CA  LEU A   1      22.769 -11.929   7.319  0.00  0.00    +0.145 C 
BRANCH  52  53
ATOM     53  N   LEU A   1      23.713 -10.947   6.833  0.00  0.00    -0.238 NA
ATOM     54  H   LEU A   1      23.366 -10.069   6.396  0.00  0.00    +0.142 HD
ENDBRANCH  52  53
BRANCH  52  55
ATOM     55  CB  LEU A   1      21.957 -11.464   8.520  0.00  0.00    +0.026 C 
BRANCH  55  56
ATOM     56  CG  LEU A   1      22.761 -11.148   9.787  0.00  0.00    +0.002 C 
ATOM     57  CD2 LEU A   1      21.838 -10.515  10.808  0.00  0.00    +0.000 C 
ATOM     58  CD1 LEU A   1      23.421 -12.418  10.309  0.00  0.00    +0.000 C 
ENDBRANCH  55  56
ENDBRANCH  52  55
ENDBRANCH  48  52
ENDBRANCH  47  49
BRANCH  47  59
ATOM     59  CB  GLN A   2      20.020 -15.040   4.872  0.00  0.00    +0.039 C 
BRANCH  59  60
ATOM     60  CG  GLN A   2      18.958 -15.333   3.823  0.00  0.00    +0.087 C 
BRANCH  60  61
ATOM     61  CD  GLN A   2      17.551 -15.330   4.397  0.00  0.00    +0.219 C 
ATOM     62  OE1 GLN A   2      17.290 -15.653   5.556  0.00  0.00    -0.275 OA
ATOM     63  NE2 GLN A   2      16.600 -14.945   3.557  0.00  0.00    -0.329 N 
ATOM     64 HE21 GLN A   2      15.610 -14.911   3.873  0.00  0.00    +0.145 HD
ATOM     65 HE22 GLN A   2      16.844 -14.677   2.582  0.00  0.00    +0.145 HD
ENDBRANCH  60  61
ENDBRANCH  59  60
ENDBRANCH  47  59
ENDBRANCH  43  47
ENDBRANCH  42  45
BRANCH  42  66
ATOM     66  CB  LEU A   3      17.167 -10.477   6.577  0.00  0.00    +0.029 C 
BRANCH  66  67
ATOM     67  CG  LEU A   3      15.982 -10.082   7.462  0.00  0.00    +0.002 C 
ATOM     68  CD2 LEU A   3      16.377  -8.951   8.405  0.00  0.00    +0.000 C 
ATOM     69  CD1 LEU A   3      14.749  -9.664   6.667  0.00  0.00    +0.000 C 
ENDBRANCH  66  67
ENDBRANCH  42  66
ENDBRANCH  38  42
ENDBRANCH   1  39
BRANCH   1  70
ATOM     70  CB  ASP A   4      13.805 -13.553   2.751  0.00  0.00    +0.143 C 
BRANCH  70  71
ATOM     71  CG  ASP A   4      12.798 -13.524   1.622  0.00  0.00    +0.367 C 
ATOM     72  OD2 ASP A   4      12.068 -12.522   1.510  0.00  0.00    -0.246 OA
ATOM     73  OD1 ASP A   4      12.774 -14.504   0.860  0.00  0.00    -0.246 OA
ENDBRANCH  70  71
ENDBRANCH   1  70
TORSDOF 30
REMARK  Name = ../refined-set-2016/1i5r/1i5r_pocket.pdb
REMARK  336 active torsions:
REMARK  status: ('A' for Active; 'I' for Inactive)
REMARK    1  A    between atoms: _1  and  _3
REMARK    2  A    between atoms: _3  and  _4
REMARK    3  A    between atoms: _3  and  _6
REMARK    4  A    between atoms: _6  and  _7
REMARK    5  A    between atoms: _10  and  _12
REMARK    6  A    between atoms: _12  and  _13
REMARK    7  A    between atoms: _12  and  _15
REMARK    8  A    between atoms: _15  and  _16
REMARK    9  A    between atoms: _19  and  _21
REMARK   10  A    between atoms: _21  and  _22
REMARK   11  A    between atoms: _24  and  _26
REMARK   12  A    between atoms: _26  and  _27
REMARK   13  A    between atoms: _26  and  _29
REMARK   14  A    between atoms: _31  and  _33
REMARK   15  A    between atoms: _33  and  _34
REMARK   16  A    between atoms: _33  and  _36
REMARK   17  A    between atoms: _36  and  _37
REMARK   18  A    between atoms: _39  and  _41
REMARK   19  A    between atoms: _41  and  _42
REMARK   20  A    between atoms: _41  and  _44
REMARK   21  A    between atoms: _44  and  _45
REMARK   22  A    between atoms: _47  and  _49
REMARK   23  A    between atoms: _49  and  _50
REMARK   24  A    between atoms: _52  and  _54
REMARK   25  A    between atoms: _54  and  _55
REMARK   26  A    between atoms: _54  and  _57
REMARK   27  A    between atoms: _57  and  _58
REMARK   28  A    between atoms: _61  and  _63
REMARK   29  A    between atoms: _63  and  _64
REMARK   30  A    between atoms: _66  and  _68
REMARK   31  A    between atoms: _68  and  _69
REMARK   32  A    between atoms: _68  and  _71
REMARK   33  A    between atoms: _71  and  _72
REMARK   34  A    between atoms: _75  and  _77
REMARK   35  A    between atoms: _77  and  _78
REMARK   36  A    between atoms: _77  and  _80
REMARK   37  A    between atoms: _80  and  _81
REMARK   38  A    between atoms: _86  and  _88
REMARK   39  A    between atoms: _88  and  _89
REMARK   40  A    between atoms: _88  and  _91
REMARK   41  A    between atoms: _91  and  _92
REMARK   42  A    between atoms: _95  and  _97
REMARK   43  A    between atoms: _97  and  _98
REMARK   44  A    between atoms: _97  and  _100
REMARK   45  A    between atoms: _100  and  _101
REMARK   46  A    between atoms: _104  and  _106
REMARK   47  A    between atoms: _106  and  _107
REMARK   48  A    between atoms: _106  and  _109
REMARK   49  A    between atoms: _109  and  _110
REMARK   50  A    between atoms: _110  and  _111
REMARK   51  A    between atoms: _111  and  _112
REMARK   52  A    between atoms: _121  and  _123
REMARK   53  A    between atoms: _123  and  _124
REMARK   54  A    between atoms: _123  and  _126
REMARK   55  A    between atoms: _126  and  _127
REMARK   56  A    between atoms: _130  and  _132
REMARK   57  A    between atoms: _132  and  _133
REMARK   58  A    between atoms: _132  and  _135
REMARK   59  A    between atoms: _135  and  _136
REMARK   60  A    between atoms: _139  and  _141
REMARK   61  A    between atoms: _141  and  _142
REMARK   62  A    between atoms: _141  and  _144
REMARK   63  A    between atoms: _144  and  _145
REMARK   64  A    between atoms: _145  and  _146
REMARK   65  A    between atoms: _146  and  _147
REMARK   66  A    between atoms: _156  and  _158
REMARK   67  A    between atoms: _158  and  _159
REMARK   68  A    between atoms: _158  and  _161
REMARK   69  A    between atoms: _161  and  _162
REMARK   70  A    between atoms: _165  and  _167
REMARK   71  A    between atoms: _167  and  _168
REMARK   72  A    between atoms: _167  and  _170
REMARK   73  A    between atoms: _170  and  _171
REMARK   74  A    between atoms: _171  and  _172
REMARK   75  A    between atoms: _177  and  _179
REMARK   76  A    between atoms: _179  and  _180
REMARK   77  A    between atoms: _179  and  _182
REMARK   78  A    between atoms: _182  and  _183
REMARK   79  A    between atoms: _186  and  _188
REMARK   80  A    between atoms: _188  and  _189
REMARK   81  A    between atoms: _188  and  _191
REMARK   82  A    between atoms: _191  and  _192
REMARK   83  A    between atoms: _195  and  _197
REMARK   84  A    between atoms: _197  and  _198
REMARK   85  A    between atoms: _197  and  _200
REMARK   86  A    between atoms: _203  and  _205
REMARK   87  A    between atoms: _205  and  _206
REMARK   88  A    between atoms: _205  and  _208
REMARK   89  A    between atoms: _208  and  _209
REMARK   90  A    between atoms: _209  and  _210
REMARK   91  A    between atoms: _210  and  _211
REMARK   92  A    between atoms: _220  and  _222
REMARK   93  A    between atoms: _222  and  _223
REMARK   94  A    between atoms: _222  and  _225
REMARK   95  A    between atoms: _225  and  _226
REMARK   96  A    between atoms: _229  and  _231
REMARK   97  A    between atoms: _231  and  _232
REMARK   98  A    between atoms: _231  and  _234
REMARK   99  A    between atoms: _234  and  _235
REMARK  100  A    between atoms: _237  and  _239
REMARK  101  A    between atoms: _239  and  _240
REMARK  102  A    between atoms: _239  and  _242
REMARK  103  A    between atoms: _245  and  _247
REMARK  104  A    between atoms: _247  and  _248
REMARK  105  A    between atoms: _247  and  _250
REMARK  106  A    between atoms: _252  and  _254
REMARK  107  A    between atoms: _254  and  _255
REMARK  108  A    between atoms: _254  and  _257
REMARK  109  A    between atoms: _257  and  _258
REMARK  110  A    between atoms: _263  and  _265
REMARK  111  A    between atoms: _265  and  _266
REMARK  112  A    between atoms: _269  and  _271
REMARK  113  A    between atoms: _271  and  _272
REMARK  114  A    between atoms: _274  and  _276
REMARK  115  A    between atoms: _276  and  _277
REMARK  116  A    between atoms: _276  and  _279
REMARK  117  A    between atoms: _279  and  _280
REMARK  118  A    between atoms: _283  and  _285
REMARK  119  A    between atoms: _285  and  _286
REMARK  120  A    between atoms: _288  and  _290
REMARK  121  A    between atoms: _290  and  _291
REMARK  122  A    between atoms: _290  and  _293
REMARK  123  A    between atoms: _293  and  _294
REMARK  124  A    between atoms: _297  and  _299
REMARK  125  A    between atoms: _299  and  _300
REMARK  126  A    between atoms: _299  and  _302
REMARK  127  A    between atoms: _302  and  _303
REMARK  128  A    between atoms: _306  and  _308
REMARK  129  A    between atoms: _308  and  _309
REMARK  130  A    between atoms: _308  and  _311
REMARK  131  A    between atoms: _311  and  _312
REMARK  132  A    between atoms: _314  and  _316
REMARK  133  A    between atoms: _316  and  _317
REMARK  134  A    between atoms: _316  and  _319
REMARK  135  A    between atoms: _319  and  _320
REMARK  136  A    between atoms: _323  and  _325
REMARK  137  A    between atoms: _325  and  _326
REMARK  138  A    between atoms: _325  and  _328
REMARK  139  A    between atoms: _331  and  _333
REMARK  140  A    between atoms: _333  and  _334
REMARK  141  A    between atoms: _333  and  _336
REMARK  142  A    between atoms: _336  and  _337
REMARK  143  A    between atoms: _342  and  _344
REMARK  144  A    between atoms: _344  and  _345
REMARK  145  A    between atoms: _347  and  _349
REMARK  146  A    between atoms: _349  and  _350
REMARK  147  A    between atoms: _349  and  _352
REMARK  148  A    between atoms: _352  and  _353
REMARK  149  A    between atoms: _353  and  _354
REMARK  150  A    between atoms: _354  and  _355
REMARK  151  A    between atoms: _364  and  _366
REMARK  152  A    between atoms: _366  and  _367
REMARK  153  A    between atoms: _366  and  _369
REMARK  154  A    between atoms: _369  and  _370
REMARK  155  A    between atoms: _370  and  _371
REMARK  156  A    between atoms: _373  and  _375
REMARK  157  A    between atoms: _375  and  _376
REMARK  158  A    between atoms: _375  and  _378
REMARK  159  A    between atoms: _378  and  _379
REMARK  160  A    between atoms: _382  and  _384
REMARK  161  A    between atoms: _384  and  _385
REMARK  162  A    between atoms: _387  and  _389
REMARK  163  A    between atoms: _389  and  _390
REMARK  164  A    between atoms: _389  and  _392
REMARK  165  A    between atoms: _392  and  _393
REMARK  166  A    between atoms: _395  and  _397
REMARK  167  A    between atoms: _397  and  _398
REMARK  168  A    between atoms: _397  and  _400
REMARK  169  A    between atoms: _403  and  _405
REMARK  170  A    between atoms: _405  and  _406
REMARK  171  A    between atoms: _408  and  _410
REMARK  172  A    between atoms: _410  and  _411
REMARK  173  A    between atoms: _413  and  _415
REMARK  174  A    between atoms: _415  and  _416
REMARK  175  A    between atoms: _415  and  _418
REMARK  176  A    between atoms: _418  and  _419
REMARK  177  A    between atoms: _422  and  _424
REMARK  178  A    between atoms: _424  and  _425
REMARK  179  A    between atoms: _424  and  _427
REMARK  180  A    between atoms: _427  and  _428
REMARK  181  A    between atoms: _428  and  _429
REMARK  182  A    between atoms: _431  and  _433
REMARK  183  A    between atoms: _433  and  _434
REMARK  184  A    between atoms: _436  and  _438
REMARK  185  A    between atoms: _438  and  _439
REMARK  186  A    between atoms: _438  and  _441
REMARK  187  A    between atoms: _441  and  _442
REMARK  188  A    between atoms: _446  and  _447
REMARK  189  A    between atoms: _452  and  _454
REMARK  190  A    between atoms: _454  and  _455
REMARK  191  A    between atoms: _454  and  _457
REMARK  192  A    between atoms: _457  and  _458
REMARK  193  A    between atoms: _463  and  _465
REMARK  194  A    between atoms: _465  and  _466
REMARK  195  A    between atoms: _465  and  _468
REMARK  196  A    between atoms: _468  and  _469
REMARK  197  A    between atoms: _474  and  _475
REMARK  198  A    between atoms: _477  and  _479
REMARK  199  A    between atoms: _479  and  _480
REMARK  200  A    between atoms: _479  and  _482
REMARK  201  A    between atoms: _484  and  _486
REMARK  202  A    between atoms: _486  and  _487
REMARK  203  A    between atoms: _486  and  _489
REMARK  204  A    between atoms: _489  and  _490
REMARK  205  A    between atoms: _490  and  _491
REMARK  206  A    between atoms: _491  and  _492
REMARK  207  A    between atoms: _492  and  _493
REMARK  208  A    between atoms: _497  and  _499
REMARK  209  A    between atoms: _499  and  _500
REMARK  210  A    between atoms: _499  and  _502
REMARK  211  A    between atoms: _502  and  _503
REMARK  212  A    between atoms: _503  and  _504
REMARK  213  A    between atoms: _507  and  _509
REMARK  214  A    between atoms: _509  and  _510
REMARK  215  A    between atoms: _509  and  _512
REMARK  216  A    between atoms: _514  and  _516
REMARK  217  A    between atoms: _516  and  _517
REMARK  218  A    between atoms: _520  and  _521
REMARK  219  A    between atoms: _526  and  _528
REMARK  220  A    between atoms: _528  and  _529
REMARK  221  A    between atoms: _528  and  _531
REMARK  222  A    between atoms: _534  and  _536
REMARK  223  A    between atoms: _536  and  _537
REMARK  224  A    between atoms: _536  and  _539
REMARK  225  A    between atoms: _539  and  _540
REMARK  226  A    between atoms: _543  and  _545
REMARK  227  A    between atoms: _545  and  _546
REMARK  228  A    between atoms: _545  and  _548
REMARK  229  A    between atoms: _548  and  _549
REMARK  230  A    between atoms: _555  and  _557
REMARK  231  A    between atoms: _557  and  _558
REMARK  232  A    between atoms: _557  and  _560
REMARK  233  A    between atoms: _560  and  _561
REMARK  234  A    between atoms: _561  and  _562
REMARK  235  A    between atoms: _564  and  _566
REMARK  236  A    between atoms: _566  and  _567
REMARK  237  A    between atoms: _566  and  _569
REMARK  238  A    between atoms: _569  and  _570
REMARK  239  A    between atoms: _570  and  _571
REMARK  240  A    between atoms: _574  and  _576
REMARK  241  A    between atoms: _576  and  _577
REMARK  242  A    between atoms: _576  and  _579
REMARK  243  A    between atoms: _579  and  _580
REMARK  244  A    between atoms: _580  and  _581
REMARK  245  A    between atoms: _581  and  _582
REMARK  246  A    between atoms: _582  and  _583
REMARK  247  A    between atoms: _587  and  _589
REMARK  248  A    between atoms: _589  and  _590
REMARK  249  A    between atoms: _589  and  _592
REMARK  250  A    between atoms: _592  and  _593
REMARK  251  A    between atoms: _598  and  _599
REMARK  252  A    between atoms: _601  and  _603
REMARK  253  A    between atoms: _603  and  _604
REMARK  254  A    between atoms: _603  and  _606
REMARK  255  A    between atoms: _606  and  _607
REMARK  256  A    between atoms: _610  and  _612
REMARK  257  A    between atoms: _612  and  _613
REMARK  258  A    between atoms: _612  and  _615
REMARK  259  A    between atoms: _615  and  _616
REMARK  260  A    between atoms: _621  and  _623
REMARK  261  A    between atoms: _623  and  _624
REMARK  262  A    between atoms: _623  and  _626
REMARK  263  A    between atoms: _626  and  _627
REMARK  264  A    between atoms: _629  and  _631
REMARK  265  A    between atoms: _631  and  _632
REMARK  266  A    between atoms: _631  and  _634
REMARK  267  A    between atoms: _634  and  _635
REMARK  268  A    between atoms: _635  and  _636
REMARK  269  A    between atoms: _636  and  _637
REMARK  270  A    between atoms: _637  and  _638
REMARK  271  A    between atoms: _642  and  _644
REMARK  272  A    between atoms: _644  and  _645
REMARK  273  A    between atoms: _644  and  _647
REMARK  274  A    between atoms: _647  and  _648
REMARK  275  A    between atoms: _648  and  _649
REMARK  276  A    between atoms: _654  and  _656
REMARK  277  A    between atoms: _656  and  _657
REMARK  278  A    between atoms: _656  and  _659
REMARK  279  A    between atoms: _662  and  _664
REMARK  280  A    between atoms: _664  and  _665
REMARK  281  A    between atoms: _664  and  _667
REMARK  282  A    between atoms: _667  and  _668
REMARK  283  A    between atoms: _674  and  _676
REMARK  284  A    between atoms: _676  and  _677
REMARK  285  A    between atoms: _680  and  _682
REMARK  286  A    between atoms: _682  and  _683
REMARK  287  A    between atoms: _682  and  _685
REMARK  288  A    between atoms: _685  and  _686
REMARK  289  A    between atoms: _689  and  _691
REMARK  290  A    between atoms: _691  and  _692
REMARK  291  A    between atoms: _691  and  _694
REMARK  292  A    between atoms: _694  and  _695
REMARK  293  A    between atoms: _695  and  _696
REMARK  294  A    between atoms: _696  and  _697
REMARK  295  A    between atoms: _706  and  _708
REMARK  296  A    between atoms: _708  and  _709
REMARK  297  A    between atoms: _708  and  _711
REMARK  298  A    between atoms: _711  and  _712
REMARK  299  A    between atoms: _718  and  _720
REMARK  300  A    between atoms: _720  and  _721
REMARK  301  A    between atoms: _720  and  _723
REMARK  302  A    between atoms: _723  and  _724
REMARK  303  A    between atoms: _727  and  _729
REMARK  304  A    between atoms: _729  and  _730
REMARK  305  A    between atoms: _729  and  _732
REMARK  306  A    between atoms: _732  and  _733
REMARK  307  A    between atoms: _738  and  _739
REMARK  308  A    between atoms: _741  and  _743
REMARK  309  A    between atoms: _743  and  _744
REMARK  310  A    between atoms: _747  and  _749
REMARK  311  A    between atoms: _749  and  _750
REMARK  312  A    between atoms: _749  and  _752
REMARK  313  A    between atoms: _752  and  _753
REMARK  314  A    between atoms: _753  and  _754
REMARK  315  A    between atoms: _756  and  _758
REMARK  316  A    between atoms: _758  and  _759
REMARK  317  A    between atoms: _758  and  _761
REMARK  318  A    between atoms: _761  and  _762
REMARK  319  A    between atoms: _767  and  _769
REMARK  320  A    between atoms: _769  and  _770
REMARK  321  A    between atoms: _769  and  _772
REMARK  322  A    between atoms: _772  and  _773
REMARK  323  A    between atoms: _773  and  _774
REMARK  324  A    between atoms: _774  and  _775
REMARK  325  A    between atoms: _784  and  _786
REMARK  326  A    between atoms: _786  and  _787
REMARK  327  A    between atoms: _786  and  _789
REMARK  328  A    between atoms: _789  and  _790
REMARK  329  A    between atoms: _790  and  _791
REMARK  330  A    between atoms: _794  and  _796
REMARK  331  A    between atoms: _796  and  _797
REMARK  332  A    between atoms: _796  and  _799
REMARK  333  A    between atoms: _802  and  _804
REMARK  334  A    between atoms: _804  and  _805
REMARK  335  A    between atoms: _804  and  _807
REMARK  336  A    between atoms: _807  and  _808
REMARK                            x       y       z     vdW  Elec       q    Type
REMARK                         _______ _______ _______ _____ _____    ______ ____
ROOT
ATOM      1  C   SER A   1      14.192 -13.757   9.019  0.00  0.00    +0.241 C 
ATOM      2  O   SER A   1      15.289 -13.495   9.486  0.00  0.00    -0.274 OA
ATOM      3  N   VAL A   2      13.168 -12.910   9.136  0.00  0.00    -0.298 N 
ATOM      4  H   VAL A   2      12.264 -13.143   8.678  0.00  0.00    +0.150 HD
ENDROOT
BRANCH   1   5
ATOM      5  CA  SER A   1      13.899 -15.038   8.252  0.00  0.00    +0.174 C 
BRANCH   5   6
ATOM      6  N   SER A   1      12.593 -15.561   8.657  0.00  0.00    -0.236 NA
ATOM      7  H   SER A   1      11.807 -15.585   7.977  0.00  0.00    +0.142 HD
ENDBRANCH   5   6
BRANCH   5   8
ATOM      8  CB  SER A   1      13.872 -14.801   6.745  0.00  0.00    +0.163 C 
BRANCH   8   9
ATOM      9  OG  SER A   1      15.104 -14.248   6.330  0.00  0.00    -0.380 OA
ATOM     10  H   SER A   1      15.837 -14.875   6.552  0.00  0.00    +0.211 HD
ENDBRANCH   8   9
ENDBRANCH   5   8
ENDBRANCH   1   5
BRANCH   3  11
ATOM     11  CA  VAL A   2      13.282 -11.669   9.887  0.00  0.00    +0.137 C 
BRANCH  11  12
ATOM     12  CB  VAL A   2      11.951 -10.900   9.902  0.00  0.00    +0.026 C 
ATOM     13  CG2 VAL A   2      12.021  -9.697  10.831  0.00  0.00    +0.002 C 
ATOM     14  CG1 VAL A   2      11.579 -10.463   8.492  0.00  0.00    +0.002 C 
ENDBRANCH  11  12
BRANCH  11  15
ATOM     15  C   VAL A   2      13.689 -12.009  11.323  0.00  0.00    +0.227 C 
ATOM     16  O   VAL A   2      14.649 -11.476  11.845  0.00  0.00    -0.286 OA
ENDBRANCH  11  15
ENDBRANCH   3  11
TORSDOF 7
REMARK  Name = ../refined-set-2016/1i5r/1i5r_pocket.pdb
REMARK  336 active torsions:
REMARK  status: ('A' for Active; 'I' for Inactive)
REMARK    1  A    between atoms: _1  and  _3
REMARK    2  A    between atoms: _3  and  _4
REMARK    3  A    between atoms: _3  and  _6
REMARK    4  A    between atoms: _6  and  _7
REMARK    5  A    between atoms: _10  and  _12
REMARK    6  A    between atoms: _12  and  _13
REMARK    7  A    between atoms: _12  and  _15
REMARK    8  A    between atoms: _15  and  _16
REMARK    9  A    between atoms: _19  and  _21
REMARK   10  A    between atoms: _21  and  _22
REMARK   11  A    between atoms: _24  and  _26
REMARK   12  A    between atoms: _26  and  _27
REMARK   13  A    between atoms: _26  and  _29
REMARK   14  A    between atoms: _31  and  _33
REMARK   15  A    between atoms: _33  and  _34
REMARK   16  A    between atoms: _33  and  _36
REMARK   17  A    between atoms: _36  and  _37
REMARK   18  A    between atoms: _39  and  _41
REMARK   19  A    between atoms: _41  and  _42
REMARK   20  A    between atoms: _41  and  _44
REMARK   21  A    between atoms: _44  and  _45
REMARK   22  A    between atoms: _47  and  _49
REMARK   23  A    between atoms: _49  and  _50
REMARK   24  A    between atoms: _52  and  _54
REMARK   25  A    between atoms: _54  and  _55
REMARK   26  A    between atoms: _54  and  _57
REMARK   27  A    between atoms: _57  and  _58
REMARK   28  A    between atoms: _61  and  _63
REMARK   29  A    between atoms: _63  and  _64
REMARK   30  A    between atoms: _66  and  _68
REMARK   31  A    between atoms: _68  and  _69
REMARK   32  A    between atoms: _68  and  _71
REMARK   33  A    between atoms: _71  and  _72
REMARK   34  A    between atoms: _75  and  _77
REMARK   35  A    between atoms: _77  and  _78
REMARK   36  A    between atoms: _77  and  _80
REMARK   37  A    between atoms: _80  and  _81
REMARK   38  A    between atoms: _86  and  _88
REMARK   39  A    between atoms: _88  and  _89
REMARK   40  A    between atoms: _88  and  _91
REMARK   41  A    between atoms: _91  and  _92
REMARK   42  A    between atoms: _95  and  _97
REMARK   43  A    between atoms: _97  and  _98
REMARK   44  A    between atoms: _97  and  _100
REMARK   45  A    between atoms: _100  and  _101
REMARK   46  A    between atoms: _104  and  _106
REMARK   47  A    between atoms: _106  and  _107
REMARK   48  A    between atoms: _106  and  _109
REMARK   49  A    between atoms: _109  and  _110
REMARK   50  A    between atoms: _110  and  _111
REMARK   51  A    between atoms: _111  and  _112
REMARK   52  A    between atoms: _121  and  _123
REMARK   53  A    between atoms: _123  and  _124
REMARK   54  A    between atoms: _123  and  _126
REMARK   55  A    between atoms: _126  and  _127
REMARK   56  A    between atoms: _130  and  _132
REMARK   57  A    between atoms: _132  and  _133
REMARK   58  A    between atoms: _132  and  _135
REMARK   59  A    between atoms: _135  and  _136
REMARK   60  A    between atoms: _139  and  _141
REMARK   61  A    between atoms: _141  and  _142
REMARK   62  A    between atoms: _141  and  _144
REMARK   63  A    between atoms: _144  and  _145
REMARK   64  A    between atoms: _145  and  _146
REMARK   65  A    between atoms: _146  and  _147
REMARK   66  A    between atoms: _156  and  _158
REMARK   67  A    between atoms: _158  and  _159
REMARK   68  A    between atoms: _158  and  _161
REMARK   69  A    between atoms: _161  and  _162
REMARK   70  A    between atoms: _165  and  _167
REMARK   71  A    between atoms: _167  and  _168
REMARK   72  A    between atoms: _167  and  _170
REMARK   73  A    between atoms: _170  and  _171
REMARK   74  A    between atoms: _171  and  _172
REMARK   75  A    between atoms: _177  and  _179
REMARK   76  A    between atoms: _179  and  _180
REMARK   77  A    between atoms: _179  and  _182
REMARK   78  A    between atoms: _182  and  _183
REMARK   79  A    between atoms: _186  and  _188
REMARK   80  A    between atoms: _188  and  _189
REMARK   81  A    between atoms: _188  and  _191
REMARK   82  A    between atoms: _191  and  _192
REMARK   83  A    between atoms: _195  and  _197
REMARK   84  A    between atoms: _197  and  _198
REMARK   85  A    between atoms: _197  and  _200
REMARK   86  A    between atoms: _203  and  _205
REMARK   87  A    between atoms: _205  and  _206
REMARK   88  A    between atoms: _205  and  _208
REMARK   89  A    between atoms: _208  and  _209
REMARK   90  A    between atoms: _209  and  _210
REMARK   91  A    between atoms: _210  and  _211
REMARK   92  A    between atoms: _220  and  _222
REMARK   93  A    between atoms: _222  and  _223
REMARK   94  A    between atoms: _222  and  _225
REMARK   95  A    between atoms: _225  and  _226
REMARK   96  A    between atoms: _229  and  _231
REMARK   97  A    between atoms: _231  and  _232
REMARK   98  A    between atoms: _231  and  _234
REMARK   99  A    between atoms: _234  and  _235
REMARK  100  A    between atoms: _237  and  _239
REMARK  101  A    between atoms: _239  and  _240
REMARK  102  A    between atoms: _239  and  _242
REMARK  103  A    between atoms: _245  and  _247
REMARK  104  A    between atoms: _247  and  _248
REMARK  105  A    between atoms: _247  and  _250
REMARK  106  A    between atoms: _252  and  _254
REMARK  107  A    between atoms: _254  and  _255
REMARK  108  A    between atoms: _254  and  _257
REMARK  109  A    between atoms: _257  and  _258
REMARK  110  A    between atoms: _263  and  _265
REMARK  111  A    between atoms: _265  and  _266
REMARK  112  A    between atoms: _269  and  _271
REMARK  113  A    between atoms: _271  and  _272
REMARK  114  A    between atoms: _274  and  _276
REMARK  115  A    between atoms: _276  and  _277
REMARK  116  A    between atoms: _276  and  _279
REMARK  117  A    between atoms: _279  and  _280
REMARK  118  A    between atoms: _283  and  _285
REMARK  119  A    between atoms: _285  and  _286
REMARK  120  A    between atoms: _288  and  _290
REMARK  121  A    between atoms: _290  and  _291
REMARK  122  A    between atoms: _290  and  _293
REMARK  123  A    between atoms: _293  and  _294
REMARK  124  A    between atoms: _297  and  _299
REMARK  125  A    between atoms: _299  and  _300
REMARK  126  A    between atoms: _299  and  _302
REMARK  127  A    between atoms: _302  and  _303
REMARK  128  A    between atoms: _306  and  _308
REMARK  129  A    between atoms: _308  and  _309
REMARK  130  A    between atoms: _308  and  _311
REMARK  131  A    between atoms: _311  and  _312
REMARK  132  A    between atoms: _314  and  _316
REMARK  133  A    between atoms: _316  and  _317
REMARK  134  A    between atoms: _316  and  _319
REMARK  135  A    between atoms: _319  and  _320
REMARK  136  A    between atoms: _323  and  _325
REMARK  137  A    between atoms: _325  and  _326
REMARK  138  A    between atoms: _325  and  _328
REMARK  139  A    between atoms: _331  and  _333
REMARK  140  A    between atoms: _333  and  _334
REMARK  141  A    between atoms: _333  and  _336
REMARK  142  A    between atoms: _336  and  _337
REMARK  143  A    between atoms: _342  and  _344
REMARK  144  A    between atoms: _344  and  _345
REMARK  145  A    between atoms: _347  and  _349
REMARK  146  A    between atoms: _349  and  _350
REMARK  147  A    between atoms: _349  and  _352
REMARK  148  A    between atoms: _352  and  _353
REMARK  149  A    between atoms: _353  and  _354
REMARK  150  A    between atoms: _354  and  _355
REMARK  151  A    between atoms: _364  and  _366
REMARK  152  A    between atoms: _366  and  _367
REMARK  153  A    between atoms: _366  and  _369
REMARK  154  A    between atoms: _369  and  _370
REMARK  155  A    between atoms: _370  and  _371
REMARK  156  A    between atoms: _373  and  _375
REMARK  157  A    between atoms: _375  and  _376
REMARK  158  A    between atoms: _375  and  _378
REMARK  159  A    between atoms: _378  and  _379
REMARK  160  A    between atoms: _382  and  _384
REMARK  161  A    between atoms: _384  and  _385
REMARK  162  A    between atoms: _387  and  _389
REMARK  163  A    between atoms: _389  and  _390
REMARK  164  A    between atoms: _389  and  _392
REMARK  165  A    between atoms: _392  and  _393
REMARK  166  A    between atoms: _395  and  _397
REMARK  167  A    between atoms: _397  and  _398
REMARK  168  A    between atoms: _397  and  _400
REMARK  169  A    between atoms: _403  and  _405
REMARK  170  A    between atoms: _405  and  _406
REMARK  171  A    between atoms: _408  and  _410
REMARK  172  A    between atoms: _410  and  _411
REMARK  173  A    between atoms: _413  and  _415
REMARK  174  A    between atoms: _415  and  _416
REMARK  175  A    between atoms: _415  and  _418
REMARK  176  A    between atoms: _418  and  _419
REMARK  177  A    between atoms: _422  and  _424
REMARK  178  A    between atoms: _424  and  _425
REMARK  179  A    between atoms: _424  and  _427
REMARK  180  A    between atoms: _427  and  _428
REMARK  181  A    between atoms: _428  and  _429
REMARK  182  A    between atoms: _431  and  _433
REMARK  183  A    between atoms: _433  and  _434
REMARK  184  A    between atoms: _436  and  _438
REMARK  185  A    between atoms: _438  and  _439
REMARK  186  A    between atoms: _438  and  _441
REMARK  187  A    between atoms: _441  and  _442
REMARK  188  A    between atoms: _446  and  _447
REMARK  189  A    between atoms: _452  and  _454
REMARK  190  A    between atoms: _454  and  _455
REMARK  191  A    between atoms: _454  and  _457
REMARK  192  A    between atoms: _457  and  _458
REMARK  193  A    between atoms: _463  and  _465
REMARK  194  A    between atoms: _465  and  _466
REMARK  195  A    between atoms: _465  and  _468
REMARK  196  A    between atoms: _468  and  _469
REMARK  197  A    between atoms: _474  and  _475
REMARK  198  A    between atoms: _477  and  _479
REMARK  199  A    between atoms: _479  and  _480
REMARK  200  A    between atoms: _479  and  _482
REMARK  201  A    between atoms: _484  and  _486
REMARK  202  A    between atoms: _486  and  _487
REMARK  203  A    between atoms: _486  and  _489
REMARK  204  A    between atoms: _489  and  _490
REMARK  205  A    between atoms: _490  and  _491
REMARK  206  A    between atoms: _491  and  _492
REMARK  207  A    between atoms: _492  and  _493
REMARK  208  A    between atoms: _497  and  _499
REMARK  209  A    between atoms: _499  and  _500
REMARK  210  A    between atoms: _499  and  _502
REMARK  211  A    between atoms: _502  and  _503
REMARK  212  A    between atoms: _503  and  _504
REMARK  213  A    between atoms: _507  and  _509
REMARK  214  A    between atoms: _509  and  _510
REMARK  215  A    between atoms: _509  and  _512
REMARK  216  A    between atoms: _514  and  _516
REMARK  217  A    between atoms: _516  and  _517
REMARK  218  A    between atoms: _520  and  _521
REMARK  219  A    between atoms: _526  and  _528
REMARK  220  A    between atoms: _528  and  _529
REMARK  221  A    between atoms: _528  and  _531
REMARK  222  A    between atoms: _534  and  _536
REMARK  223  A    between atoms: _536  and  _537
REMARK  224  A    between atoms: _536  and  _539
REMARK  225  A    between atoms: _539  and  _540
REMARK  226  A    between atoms: _543  and  _545
REMARK  227  A    between atoms: _545  and  _546
REMARK  228  A    between atoms: _545  and  _548
REMARK  229  A    between atoms: _548  and  _549
REMARK  230  A    between atoms: _555  and  _557
REMARK  231  A    between atoms: _557  and  _558
REMARK  232  A    between atoms: _557  and  _560
REMARK  233  A    between atoms: _560  and  _561
REMARK  234  A    between atoms: _561  and  _562
REMARK  235  A    between atoms: _564  and  _566
REMARK  236  A    between atoms: _566  and  _567
REMARK  237  A    between atoms: _566  and  _569
REMARK  238  A    between atoms: _569  and  _570
REMARK  239  A    between atoms: _570  and  _571
REMARK  240  A    between atoms: _574  and  _576
REMARK  241  A    between atoms: _576  and  _577
REMARK  242  A    between atoms: _576  and  _579
REMARK  243  A    between atoms: _579  and  _580
REMARK  244  A    between atoms: _580  and  _581
REMARK  245  A    between atoms: _581  and  _582
REMARK  246  A    between atoms: _582  and  _583
REMARK  247  A    between atoms: _587  and  _589
REMARK  248  A    between atoms: _589  and  _590
REMARK  249  A    between atoms: _589  and  _592
REMARK  250  A    between atoms: _592  and  _593
REMARK  251  A    between atoms: _598  and  _599
REMARK  252  A    between atoms: _601  and  _603
REMARK  253  A    between atoms: _603  and  _604
REMARK  254  A    between atoms: _603  and  _606
REMARK  255  A    between atoms: _606  and  _607
REMARK  256  A    between atoms: _610  and  _612
REMARK  257  A    between atoms: _612  and  _613
REMARK  258  A    between atoms: _612  and  _615
REMARK  259  A    between atoms: _615  and  _616
REMARK  260  A    between atoms: _621  and  _623
REMARK  261  A    between atoms: _623  and  _624
REMARK  262  A    between atoms: _623  and  _626
REMARK  263  A    between atoms: _626  and  _627
REMARK  264  A    between atoms: _629  and  _631
REMARK  265  A    between atoms: _631  and  _632
REMARK  266  A    between atoms: _631  and  _634
REMARK  267  A    between atoms: _634  and  _635
REMARK  268  A    between atoms: _635  and  _636
REMARK  269  A    between atoms: _636  and  _637
REMARK  270  A    between atoms: _637  and  _638
REMARK  271  A    between atoms: _642  and  _644
REMARK  272  A    between atoms: _644  and  _645
REMARK  273  A    between atoms: _644  and  _647
REMARK  274  A    between atoms: _647  and  _648
REMARK  275  A    between atoms: _648  and  _649
REMARK  276  A    between atoms: _654  and  _656
REMARK  277  A    between atoms: _656  and  _657
REMARK  278  A    between atoms: _656  and  _659
REMARK  279  A    between atoms: _662  and  _664
REMARK  280  A    between atoms: _664  and  _665
REMARK  281  A    between atoms: _664  and  _667
REMARK  282  A    between atoms: _667  and  _668
REMARK  283  A    between atoms: _674  and  _676
REMARK  284  A    between atoms: _676  and  _677
REMARK  285  A    between atoms: _680  and  _682
REMARK  286  A    between atoms: _682  and  _683
REMARK  287  A    between atoms: _682  and  _685
REMARK  288  A    between atoms: _685  and  _686
REMARK  289  A    between atoms: _689  and  _691
REMARK  290  A    between atoms: _691  and  _692
REMARK  291  A    between atoms: _691  and  _694
REMARK  292  A    between atoms: _694  and  _695
REMARK  293  A    between atoms: _695  and  _696
REMARK  294  A    between atoms: _696  and  _697
REMARK  295  A    between atoms: _706  and  _708
REMARK  296  A    between atoms: _708  and  _709
REMARK  297  A    between atoms: _708  and  _711
REMARK  298  A    between atoms: _711  and  _712
REMARK  299  A    between atoms: _718  and  _720
REMARK  300  A    between atoms: _720  and  _721
REMARK  301  A    between atoms: _720  and  _723
REMARK  302  A    between atoms: _723  and  _724
REMARK  303  A    between atoms: _727  and  _729
REMARK  304  A    between atoms: _729  and  _730
REMARK  305  A    between atoms: _729  and  _732
REMARK  306  A    between atoms: _732  and  _733
REMARK  307  A    between atoms: _738  and  _739
REMARK  308  A    between atoms: _741  and  _743
REMARK  309  A    between atoms: _743  and  _744
REMARK  310  A    between atoms: _747  and  _749
REMARK  311  A    between atoms: _749  and  _750
REMARK  312  A    between atoms: _749  and  _752
REMARK  313  A    between atoms: _752  and  _753
REMARK  314  A    between atoms: _753  and  _754
REMARK  315  A    between atoms: _756  and  _758
REMARK  316  A    between atoms: _758  and  _759
REMARK  317  A    between atoms: _758  and  _761
REMARK  318  A    between atoms: _761  and  _762
REMARK  319  A    between atoms: _767  and  _769
REMARK  320  A    between atoms: _769  and  _770
REMARK  321  A    between atoms: _769  and  _772
REMARK  322  A    between atoms: _772  and  _773
REMARK  323  A    between atoms: _773  and  _774
REMARK  324  A    between atoms: _774  and  _775
REMARK  325  A    between atoms: _784  and  _786
REMARK  326  A    between atoms: _786  and  _787
REMARK  327  A    between atoms: _786  and  _789
REMARK  328  A    between atoms: _789  and  _790
REMARK  329  A    between atoms: _790  and  _791
REMARK  330  A    between atoms: _794  and  _796
REMARK  331  A    between atoms: _796  and  _797
REMARK  332  A    between atoms: _796  and  _799
REMARK  333  A    between atoms: _802  and  _804
REMARK  334  A    between atoms: _804  and  _805
REMARK  335  A    between atoms: _804  and  _807
REMARK  336  A    between atoms: _807  and  _808
REMARK                            x       y       z     vdW  Elec       q    Type
REMARK                         _______ _______ _______ _____ _____    ______ ____
ROOT
ATOM      1  C   GLY A   4      12.048  -4.198  -3.350  0.00  0.00    +0.243 C 
ATOM      2  O   GLY A   4      13.046  -4.747  -3.794  0.00  0.00    -0.273 OA
ATOM      3  N   LEU A   5      10.894  -4.139  -3.984  0.00  0.00    -0.297 N 
ATOM      4  H   LEU A   5      10.077  -3.726  -3.490  0.00  0.00    +0.150 HD
ENDROOT
BRANCH   3   5
ATOM      5  CA  LEU A   5      10.713  -4.617  -5.322  0.00  0.00    +0.149 C 
BRANCH   5   6
ATOM      6  C   LEU A   5      10.116  -3.496  -6.161  0.00  0.00    +0.241 C 
ATOM      7  O   LEU A   5       9.430  -2.633  -5.655  0.00  0.00    -0.273 OA
ATOM      8  N   GLY A   6      10.464  -3.557  -7.440  0.00  0.00    -0.295 N 
ATOM      9  H   GLY A   6      11.143  -4.268  -7.779  0.00  0.00    +0.150 HD
BRANCH   8  10
ATOM     10  CA  GLY A   6       9.860  -2.590  -8.359  0.00  0.00    +0.176 C 
BRANCH  10  11
ATOM     11  C   GLY A   6       8.861  -3.435  -9.160  0.00  0.00    +0.243 C 
ATOM     12  O   GLY A   6       8.891  -4.657  -9.150  0.00  0.00    -0.273 OA
ATOM     13  N   LEU A   7       7.995  -2.721  -9.854  0.00  0.00    -0.297 N 
ATOM     14  H   LEU A   7       7.987  -1.683  -9.795  0.00  0.00    +0.150 HD
BRANCH  13  15
ATOM     15  CA  LEU A   7       7.048  -3.433 -10.708  0.00  0.00    +0.149 C 
BRANCH  15  16
ATOM     16  C   LEU A   7       6.583  -2.364 -11.680  0.00  0.00    +0.241 C 
ATOM     17  O   LEU A   7       6.022  -1.362 -11.267  0.00  0.00    -0.273 OA
ATOM     18  N   LEU A   8       6.966  -2.581 -12.930  0.00  0.00    -0.298 N 
ATOM     19  H   LEU A   8       7.465  -3.454 -13.195  0.00  0.00    +0.150 HD
BRANCH  18  20
ATOM     20  CA  LEU A   8       6.665  -1.557 -13.919  0.00  0.00    +0.137 C 
BRANCH  20  21
ATOM     21  C   LEU A   8       5.906  -2.203 -15.064  0.00  0.00    +0.227 C 
ATOM     22  O   LEU A   8       6.278  -3.277 -15.514  0.00  0.00    -0.286 OA
ENDBRANCH  20  21
BRANCH  20  23
ATOM     23  CB  LEU A   8       8.007  -1.024 -14.428  0.00  0.00    +0.028 C 
BRANCH  23  24
ATOM     24  CG  LEU A   8       8.001   0.076 -15.478  0.00  0.00    +0.002 C 
ATOM     25  CD2 LEU A   8       7.416   1.351 -14.912  0.00  0.00    +0.000 C 
ATOM     26  CD1 LEU A   8       9.434   0.308 -15.965  0.00  0.00    +0.000 C 
ENDBRANCH  23  24
ENDBRANCH  20  23
ENDBRANCH  18  20
ENDBRANCH  15  16
BRANCH  15  27
ATOM     27  CB  LEU A   7       5.897  -4.043  -9.924  0.00  0.00    +0.029 C 
BRANCH  27  28
ATOM     28  CG  LEU A   7       4.977  -4.900 -10.803  0.00  0.00    +0.002 C 
ATOM     29  CD2 LEU A   7       3.874  -5.510  -9.953  0.00  0.00    +0.000 C 
ATOM     30  CD1 LEU A   7       5.763  -5.983 -11.529  0.00  0.00    +0.000 C 
ENDBRANCH  27  28
ENDBRANCH  15  27
ENDBRANCH  13  15
ENDBRANCH  10  11
ENDBRANCH   8  10
ENDBRANCH   5   6
BRANCH   5  31
ATOM     31  CB  LEU A   5       9.722  -5.771  -5.351  0.00  0.00    +0.029 C 
BRANCH  31  32
ATOM     32  CG  LEU A   5      10.211  -7.087  -4.743  0.00  0.00    +0.002 C 
ATOM     33  CD2 LEU A   5       9.087  -8.094  -4.905  0.00  0.00    +0.000 C 
ATOM     34  CD1 LEU A   5      11.472  -7.550  -5.456  0.00  0.00    +0.000 C 
ENDBRANCH  31  32
ENDBRANCH   5  31
ENDBRANCH   3   5
BRANCH   1  35
ATOM     35  CA  GLY A   4      11.984  -3.520  -2.002  0.00  0.00    +0.176 C 
BRANCH  35  38
ATOM     36  C   ALA A   3      12.987  -3.711   0.116  0.00  0.00    +0.241 C 
ATOM     37  O   ALA A   3      12.025  -3.145   0.630  0.00  0.00    -0.273 OA
ATOM     38  N   GLY A   4      13.115  -3.970  -1.177  0.00  0.00    -0.295 N 
ATOM     39  H   GLY A   4      13.946  -4.452  -1.575  0.00  0.00    +0.150 HD
BRANCH  36  40
ATOM     40  CA  ALA A   3      14.158  -4.178   0.974  0.00  0.00    +0.149 C 
ATOM     41  CB  ALA A   3      13.721  -5.420   1.727  0.00  0.00    +0.031 C 
BRANCH  40  43
ATOM     42  C   ASN A   2      14.794  -1.884   1.377  0.00  0.00    +0.241 C 
ATOM     43  N   ALA A   3      14.538  -3.097   1.869  0.00  0.00    -0.297 N 
ATOM     44  H   ALA A   3      14.610  -3.269   2.892  0.00  0.00    +0.150 HD
ATOM     45  O   ASN A   2      14.747  -1.621   0.176  0.00  0.00    -0.273 OA
BRANCH  42  46
ATOM     46  CA  ASN A   2      15.173  -0.812   2.371  0.00  0.00    +0.158 C 
BRANCH  46  49
ATOM     47  C   CYS A   1      14.048  -0.472   4.470  0.00  0.00    +0.239 C 
ATOM     48  O   CYS A   1      13.465   0.547   4.136  0.00  0.00    -0.274 OA
ATOM     49  N   ASN A   2      14.855  -1.218   3.731  0.00  0.00    -0.297 N 
ATOM     50  H   ASN A   2      15.260  -2.092   4.122  0.00  0.00    +0.150 HD
BRANCH  47  51
ATOM     51  CA  CYS A   1      13.898  -0.983   5.903  0.00  0.00    +0.156 C 
BRANCH  51  52
ATOM     52  N   CYS A   1      14.796  -0.155   6.699  0.00  0.00    -0.237 NA
ATOM     53  H   CYS A   1      14.451   0.746   7.088  0.00  0.00    +0.142 HD
ENDBRANCH  51  52
BRANCH  51  54
ATOM     54  CB  CYS A   1      12.467  -0.762   6.373  0.00  0.00    +0.095 C 
ATOM     55  SG  CYS A   1      12.287  -1.446   8.030  0.00  0.00    -0.080 S 
ENDBRANCH  51  54
ENDBRANCH  47  51
ENDBRANCH  46  49
BRANCH  46  56
ATOM     56  CB  ASN A   2      16.681  -0.501   2.387  0.00  0.00    +0.114 C 
BRANCH  56  57
ATOM     57  CG  ASN A   2      17.192  -0.342   0.968  0.00  0.00    +0.222 C 
ATOM     58  ND2 ASN A   2      17.879  -1.357   0.497  0.00  0.00    -0.329 N 
ATOM     59 HD21 ASN A   2      18.095  -2.169   1.111  0.00  0.00    +0.145 HD
ATOM     60 HD22 ASN A   2      18.208  -1.349  -0.490  0.00  0.00    +0.145 HD
ATOM     61  OD1 ASN A   2      16.879   0.666   0.340  0.00  0.00    -0.275 OA
ENDBRANCH  56  57
ENDBRANCH  46  56
ENDBRANCH  42  46
ENDBRANCH  40  43
ENDBRANCH  36  40
ENDBRANCH  35  38
ENDBRANCH   1  35
TORSDOF 25
REMARK  Name = ../refined-set-2016/1i5r/1i5r_pocket.pdb
REMARK  336 active torsions:
REMARK  status: ('A' for Active; 'I' for Inactive)
REMARK    1  A    between atoms: _1  and  _3
REMARK    2  A    between atoms: _3  and  _4
REMARK    3  A    between atoms: _3  and  _6
REMARK    4  A    between atoms: _6  and  _7
REMARK    5  A    between atoms: _10  and  _12
REMARK    6  A    between atoms: _12  and  _13
REMARK    7  A    between atoms: _12  and  _15
REMARK    8  A    between atoms: _15  and  _16
REMARK    9  A    between atoms: _19  and  _21
REMARK   10  A    between atoms: _21  and  _22
REMARK   11  A    between atoms: _24  and  _26
REMARK   12  A    between atoms: _26  and  _27
REMARK   13  A    between atoms: _26  and  _29
REMARK   14  A    between atoms: _31  and  _33
REMARK   15  A    between atoms: _33  and  _34
REMARK   16  A    between atoms: _33  and  _36
REMARK   17  A    between atoms: _36  and  _37
REMARK   18  A    between atoms: _39  and  _41
REMARK   19  A    between atoms: _41  and  _42
REMARK   20  A    between atoms: _41  and  _44
REMARK   21  A    between atoms: _44  and  _45
REMARK   22  A    between atoms: _47  and  _49
REMARK   23  A    between atoms: _49  and  _50
REMARK   24  A    between atoms: _52  and  _54
REMARK   25  A    between atoms: _54  and  _55
REMARK   26  A    between atoms: _54  and  _57
REMARK   27  A    between atoms: _57  and  _58
REMARK   28  A    between atoms: _61  and  _63
REMARK   29  A    between atoms: _63  and  _64
REMARK   30  A    between atoms: _66  and  _68
REMARK   31  A    between atoms: _68  and  _69
REMARK   32  A    between atoms: _68  and  _71
REMARK   33  A    between atoms: _71  and  _72
REMARK   34  A    between atoms: _75  and  _77
REMARK   35  A    between atoms: _77  and  _78
REMARK   36  A    between atoms: _77  and  _80
REMARK   37  A    between atoms: _80  and  _81
REMARK   38  A    between atoms: _86  and  _88
REMARK   39  A    between atoms: _88  and  _89
REMARK   40  A    between atoms: _88  and  _91
REMARK   41  A    between atoms: _91  and  _92
REMARK   42  A    between atoms: _95  and  _97
REMARK   43  A    between atoms: _97  and  _98
REMARK   44  A    between atoms: _97  and  _100
REMARK   45  A    between atoms: _100  and  _101
REMARK   46  A    between atoms: _104  and  _106
REMARK   47  A    between atoms: _106  and  _107
REMARK   48  A    between atoms: _106  and  _109
REMARK   49  A    between atoms: _109  and  _110
REMARK   50  A    between atoms: _110  and  _111
REMARK   51  A    between atoms: _111  and  _112
REMARK   52  A    between atoms: _121  and  _123
REMARK   53  A    between atoms: _123  and  _124
REMARK   54  A    between atoms: _123  and  _126
REMARK   55  A    between atoms: _126  and  _127
REMARK   56  A    between atoms: _130  and  _132
REMARK   57  A    between atoms: _132  and  _133
REMARK   58  A    between atoms: _132  and  _135
REMARK   59  A    between atoms: _135  and  _136
REMARK   60  A    between atoms: _139  and  _141
REMARK   61  A    between atoms: _141  and  _142
REMARK   62  A    between atoms: _141  and  _144
REMARK   63  A    between atoms: _144  and  _145
REMARK   64  A    between atoms: _145  and  _146
REMARK   65  A    between atoms: _146  and  _147
REMARK   66  A    between atoms: _156  and  _158
REMARK   67  A    between atoms: _158  and  _159
REMARK   68  A    between atoms: _158  and  _161
REMARK   69  A    between atoms: _161  and  _162
REMARK   70  A    between atoms: _165  and  _167
REMARK   71  A    between atoms: _167  and  _168
REMARK   72  A    between atoms: _167  and  _170
REMARK   73  A    between atoms: _170  and  _171
REMARK   74  A    between atoms: _171  and  _172
REMARK   75  A    between atoms: _177  and  _179
REMARK   76  A    between atoms: _179  and  _180
REMARK   77  A    between atoms: _179  and  _182
REMARK   78  A    between atoms: _182  and  _183
REMARK   79  A    between atoms: _186  and  _188
REMARK   80  A    between atoms: _188  and  _189
REMARK   81  A    between atoms: _188  and  _191
REMARK   82  A    between atoms: _191  and  _192
REMARK   83  A    between atoms: _195  and  _197
REMARK   84  A    between atoms: _197  and  _198
REMARK   85  A    between atoms: _197  and  _200
REMARK   86  A    between atoms: _203  and  _205
REMARK   87  A    between atoms: _205  and  _206
REMARK   88  A    between atoms: _205  and  _208
REMARK   89  A    between atoms: _208  and  _209
REMARK   90  A    between atoms: _209  and  _210
REMARK   91  A    between atoms: _210  and  _211
REMARK   92  A    between atoms: _220  and  _222
REMARK   93  A    between atoms: _222  and  _223
REMARK   94  A    between atoms: _222  and  _225
REMARK   95  A    between atoms: _225  and  _226
REMARK   96  A    between atoms: _229  and  _231
REMARK   97  A    between atoms: _231  and  _232
REMARK   98  A    between atoms: _231  and  _234
REMARK   99  A    between atoms: _234  and  _235
REMARK  100  A    between atoms: _237  and  _239
REMARK  101  A    between atoms: _239  and  _240
REMARK  102  A    between atoms: _239  and  _242
REMARK  103  A    between atoms: _245  and  _247
REMARK  104  A    between atoms: _247  and  _248
REMARK  105  A    between atoms: _247  and  _250
REMARK  106  A    between atoms: _252  and  _254
REMARK  107  A    between atoms: _254  and  _255
REMARK  108  A    between atoms: _254  and  _257
REMARK  109  A    between atoms: _257  and  _258
REMARK  110  A    between atoms: _263  and  _265
REMARK  111  A    between atoms: _265  and  _266
REMARK  112  A    between atoms: _269  and  _271
REMARK  113  A    between atoms: _271  and  _272
REMARK  114  A    between atoms: _274  and  _276
REMARK  115  A    between atoms: _276  and  _277
REMARK  116  A    between atoms: _276  and  _279
REMARK  117  A    between atoms: _279  and  _280
REMARK  118  A    between atoms: _283  and  _285
REMARK  119  A    between atoms: _285  and  _286
REMARK  120  A    between atoms: _288  and  _290
REMARK  121  A    between atoms: _290  and  _291
REMARK  122  A    between atoms: _290  and  _293
REMARK  123  A    between atoms: _293  and  _294
REMARK  124  A    between atoms: _297  and  _299
REMARK  125  A    between atoms: _299  and  _300
REMARK  126  A    between atoms: _299  and  _302
REMARK  127  A    between atoms: _302  and  _303
REMARK  128  A    between atoms: _306  and  _308
REMARK  129  A    between atoms: _308  and  _309
REMARK  130  A    between atoms: _308  and  _311
REMARK  131  A    between atoms: _311  and  _312
REMARK  132  A    between atoms: _314  and  _316
REMARK  133  A    between atoms: _316  and  _317
REMARK  134  A    between atoms: _316  and  _319
REMARK  135  A    between atoms: _319  and  _320
REMARK  136  A    between atoms: _323  and  _325
REMARK  137  A    between atoms: _325  and  _326
REMARK  138  A    between atoms: _325  and  _328
REMARK  139  A    between atoms: _331  and  _333
REMARK  140  A    between atoms: _333  and  _334
REMARK  141  A    between atoms: _333  and  _336
REMARK  142  A    between atoms: _336  and  _337
REMARK  143  A    between atoms: _342  and  _344
REMARK  144  A    between atoms: _344  and  _345
REMARK  145  A    between atoms: _347  and  _349
REMARK  146  A    between atoms: _349  and  _350
REMARK  147  A    between atoms: _349  and  _352
REMARK  148  A    between atoms: _352  and  _353
REMARK  149  A    between atoms: _353  and  _354
REMARK  150  A    between atoms: _354  and  _355
REMARK  151  A    between atoms: _364  and  _366
REMARK  152  A    between atoms: _366  and  _367
REMARK  153  A    between atoms: _366  and  _369
REMARK  154  A    between atoms: _369  and  _370
REMARK  155  A    between atoms: _370  and  _371
REMARK  156  A    between atoms: _373  and  _375
REMARK  157  A    between atoms: _375  and  _376
REMARK  158  A    between atoms: _375  and  _378
REMARK  159  A    between atoms: _378  and  _379
REMARK  160  A    between atoms: _382  and  _384
REMARK  161  A    between atoms: _384  and  _385
REMARK  162  A    between atoms: _387  and  _389
REMARK  163  A    between atoms: _389  and  _390
REMARK  164  A    between atoms: _389  and  _392
REMARK  165  A    between atoms: _392  and  _393
REMARK  166  A    between atoms: _395  and  _397
REMARK  167  A    between atoms: _397  and  _398
REMARK  168  A    between atoms: _397  and  _400
REMARK  169  A    between atoms: _403  and  _405
REMARK  170  A    between atoms: _405  and  _406
REMARK  171  A    between atoms: _408  and  _410
REMARK  172  A    between atoms: _410  and  _411
REMARK  173  A    between atoms: _413  and  _415
REMARK  174  A    between atoms: _415  and  _416
REMARK  175  A    between atoms: _415  and  _418
REMARK  176  A    between atoms: _418  and  _419
REMARK  177  A    between atoms: _422  and  _424
REMARK  178  A    between atoms: _424  and  _425
REMARK  179  A    between atoms: _424  and  _427
REMARK  180  A    between atoms: _427  and  _428
REMARK  181  A    between atoms: _428  and  _429
REMARK  182  A    between atoms: _431  and  _433
REMARK  183  A    between atoms: _433  and  _434
REMARK  184  A    between atoms: _436  and  _438
REMARK  185  A    between atoms: _438  and  _439
REMARK  186  A    between atoms: _438  and  _441
REMARK  187  A    between atoms: _441  and  _442
REMARK  188  A    between atoms: _446  and  _447
REMARK  189  A    between atoms: _452  and  _454
REMARK  190  A    between atoms: _454  and  _455
REMARK  191  A    between atoms: _454  and  _457
REMARK  192  A    between atoms: _457  and  _458
REMARK  193  A    between atoms: _463  and  _465
REMARK  194  A    between atoms: _465  and  _466
REMARK  195  A    between atoms: _465  and  _468
REMARK  196  A    between atoms: _468  and  _469
REMARK  197  A    between atoms: _474  and  _475
REMARK  198  A    between atoms: _477  and  _479
REMARK  199  A    between atoms: _479  and  _480
REMARK  200  A    between atoms: _479  and  _482
REMARK  201  A    between atoms: _484  and  _486
REMARK  202  A    between atoms: _486  and  _487
REMARK  203  A    between atoms: _486  and  _489
REMARK  204  A    between atoms: _489  and  _490
REMARK  205  A    between atoms: _490  and  _491
REMARK  206  A    between atoms: _491  and  _492
REMARK  207  A    between atoms: _492  and  _493
REMARK  208  A    between atoms: _497  and  _499
REMARK  209  A    between atoms: _499  and  _500
REMARK  210  A    between atoms: _499  and  _502
REMARK  211  A    between atoms: _502  and  _503
REMARK  212  A    between atoms: _503  and  _504
REMARK  213  A    between atoms: _507  and  _509
REMARK  214  A    between atoms: _509  and  _510
REMARK  215  A    between atoms: _509  and  _512
REMARK  216  A    between atoms: _514  and  _516
REMARK  217  A    between atoms: _516  and  _517
REMARK  218  A    between atoms: _520  and  _521
REMARK  219  A    between atoms: _526  and  _528
REMARK  220  A    between atoms: _528  and  _529
REMARK  221  A    between atoms: _528  and  _531
REMARK  222  A    between atoms: _534  and  _536
REMARK  223  A    between atoms: _536  and  _537
REMARK  224  A    between atoms: _536  and  _539
REMARK  225  A    between atoms: _539  and  _540
REMARK  226  A    between atoms: _543  and  _545
REMARK  227  A    between atoms: _545  and  _546
REMARK  228  A    between atoms: _545  and  _548
REMARK  229  A    between atoms: _548  and  _549
REMARK  230  A    between atoms: _555  and  _557
REMARK  231  A    between atoms: _557  and  _558
REMARK  232  A    between atoms: _557  and  _560
REMARK  233  A    between atoms: _560  and  _561
REMARK  234  A    between atoms: _561  and  _562
REMARK  235  A    between atoms: _564  and  _566
REMARK  236  A    between atoms: _566  and  _567
REMARK  237  A    between atoms: _566  and  _569
REMARK  238  A    between atoms: _569  and  _570
REMARK  239  A    between atoms: _570  and  _571
REMARK  240  A    between atoms: _574  and  _576
REMARK  241  A    between atoms: _576  and  _577
REMARK  242  A    between atoms: _576  and  _579
REMARK  243  A    between atoms: _579  and  _580
REMARK  244  A    between atoms: _580  and  _581
REMARK  245  A    between atoms: _581  and  _582
REMARK  246  A    between atoms: _582  and  _583
REMARK  247  A    between atoms: _587  and  _589
REMARK  248  A    between atoms: _589  and  _590
REMARK  249  A    between atoms: _589  and  _592
REMARK  250  A    between atoms: _592  and  _593
REMARK  251  A    between atoms: _598  and  _599
REMARK  252  A    between atoms: _601  and  _603
REMARK  253  A    between atoms: _603  and  _604
REMARK  254  A    between atoms: _603  and  _606
REMARK  255  A    between atoms: _606  and  _607
REMARK  256  A    between atoms: _610  and  _612
REMARK  257  A    between atoms: _612  and  _613
REMARK  258  A    between atoms: _612  and  _615
REMARK  259  A    between atoms: _615  and  _616
REMARK  260  A    between atoms: _621  and  _623
REMARK  261  A    between atoms: _623  and  _624
REMARK  262  A    between atoms: _623  and  _626
REMARK  263  A    between atoms: _626  and  _627
REMARK  264  A    between atoms: _629  and  _631
REMARK  265  A    between atoms: _631  and  _632
REMARK  266  A    between atoms: _631  and  _634
REMARK  267  A    between atoms: _634  and  _635
REMARK  268  A    between atoms: _635  and  _636
REMARK  269  A    between atoms: _636  and  _637
REMARK  270  A    between atoms: _637  and  _638
REMARK  271  A    between atoms: _642  and  _644
REMARK  272  A    between atoms: _644  and  _645
REMARK  273  A    between atoms: _644  and  _647
REMARK  274  A    between atoms: _647  and  _648
REMARK  275  A    between atoms: _648  and  _649
REMARK  276  A    between atoms: _654  and  _656
REMARK  277  A    between atoms: _656  and  _657
REMARK  278  A    between atoms: _656  and  _659
REMARK  279  A    between atoms: _662  and  _664
REMARK  280  A    between atoms: _664  and  _665
REMARK  281  A    between atoms: _664  and  _667
REMARK  282  A    between atoms: _667  and  _668
REMARK  283  A    between atoms: _674  and  _676
REMARK  284  A    between atoms: _676  and  _677
REMARK  285  A    between atoms: _680  and  _682
REMARK  286  A    between atoms: _682  and  _683
REMARK  287  A    between atoms: _682  and  _685
REMARK  288  A    between atoms: _685  and  _686
REMARK  289  A    between atoms: _689  and  _691
REMARK  290  A    between atoms: _691  and  _692
REMARK  291  A    between atoms: _691  and  _694
REMARK  292  A    between atoms: _694  and  _695
REMARK  293  A    between atoms: _695  and  _696
REMARK  294  A    between atoms: _696  and  _697
REMARK  295  A    between atoms: _706  and  _708
REMARK  296  A    between atoms: _708  and  _709
REMARK  297  A    between atoms: _708  and  _711
REMARK  298  A    between atoms: _711  and  _712
REMARK  299  A    between atoms: _718  and  _720
REMARK  300  A    between atoms: _720  and  _721
REMARK  301  A    between atoms: _720  and  _723
REMARK  302  A    between atoms: _723  and  _724
REMARK  303  A    between atoms: _727  and  _729
REMARK  304  A    between atoms: _729  and  _730
REMARK  305  A    between atoms: _729  and  _732
REMARK  306  A    between atoms: _732  and  _733
REMARK  307  A    between atoms: _738  and  _739
REMARK  308  A    between atoms: _741  and  _743
REMARK  309  A    between atoms: _743  and  _744
REMARK  310  A    between atoms: _747  and  _749
REMARK  311  A    between atoms: _749  and  _750
REMARK  312  A    between atoms: _749  and  _752
REMARK  313  A    between atoms: _752  and  _753
REMARK  314  A    between atoms: _753  and  _754
REMARK  315  A    between atoms: _756  and  _758
REMARK  316  A    between atoms: _758  and  _759
REMARK  317  A    between atoms: _758  and  _761
REMARK  318  A    between atoms: _761  and  _762
REMARK  319  A    between atoms: _767  and  _769
REMARK  320  A    between atoms: _769  and  _770
REMARK  321  A    between atoms: _769  and  _772
REMARK  322  A    between atoms: _772  and  _773
REMARK  323  A    between atoms: _773  and  _774
REMARK  324  A    between atoms: _774  and  _775
REMARK  325  A    between atoms: _784  and  _786
REMARK  326  A    between atoms: _786  and  _787
REMARK  327  A    between atoms: _786  and  _789
REMARK  328  A    between atoms: _789  and  _790
REMARK  329  A    between atoms: _790  and  _791
REMARK  330  A    between atoms: _794  and  _796
REMARK  331  A    between atoms: _796  and  _797
REMARK  332  A    between atoms: _796  and  _799
REMARK  333  A    between atoms: _802  and  _804
REMARK  334  A    between atoms: _804  and  _805
REMARK  335  A    between atoms: _804  and  _807
REMARK  336  A    between atoms: _807  and  _808
REMARK                            x       y       z     vdW  Elec       q    Type
REMARK                         _______ _______ _______ _____ _____    ______ ____
ROOT
ATOM      1  CA  SER A   1       4.987  -9.810  -4.130  0.00  0.00    +0.163 C 
ENDROOT
BRANCH   1   2
ATOM      2  N   SER A   1       3.616  -9.804  -4.608  0.00  0.00    -0.237 NA
ATOM      3  H   SER A   1       3.405 -10.161  -5.562  0.00  0.00    +0.142 HD
ENDBRANCH   1   2
BRANCH   1   4
ATOM      4  CB  SER A   1       5.478  -8.416  -3.798  0.00  0.00    +0.227 C 
ATOM      5  OG  SER A   1       6.181  -8.195  -2.820  0.00  0.00    -0.287 OA
ENDBRANCH   1   4
BRANCH   1   6
ATOM      6  C   SER A   1       5.883 -10.435  -5.217  0.00  0.00    +0.162 C 
BRANCH   6   7
ATOM      7  O   SER A   1       5.488 -11.790  -5.355  0.00  0.00    -0.380 OA
ATOM      8  H   SER A   1       4.536 -11.829  -5.622  0.00  0.00    +0.211 HD
ENDBRANCH   6   7
ENDBRANCH   1   6
TORSDOF 4
REMARK  Name = ../refined-set-2016/1i5r/1i5r_pocket.pdb
REMARK  336 active torsions:
REMARK  status: ('A' for Active; 'I' for Inactive)
REMARK    1  A    between atoms: _1  and  _3
REMARK    2  A    between atoms: _3  and  _4
REMARK    3  A    between atoms: _3  and  _6
REMARK    4  A    between atoms: _6  and  _7
REMARK    5  A    between atoms: _10  and  _12
REMARK    6  A    between atoms: _12  and  _13
REMARK    7  A    between atoms: _12  and  _15
REMARK    8  A    between atoms: _15  and  _16
REMARK    9  A    between atoms: _19  and  _21
REMARK   10  A    between atoms: _21  and  _22
REMARK   11  A    between atoms: _24  and  _26
REMARK   12  A    between atoms: _26  and  _27
REMARK   13  A    between atoms: _26  and  _29
REMARK   14  A    between atoms: _31  and  _33
REMARK   15  A    between atoms: _33  and  _34
REMARK   16  A    between atoms: _33  and  _36
REMARK   17  A    between atoms: _36  and  _37
REMARK   18  A    between atoms: _39  and  _41
REMARK   19  A    between atoms: _41  and  _42
REMARK   20  A    between atoms: _41  and  _44
REMARK   21  A    between atoms: _44  and  _45
REMARK   22  A    between atoms: _47  and  _49
REMARK   23  A    between atoms: _49  and  _50
REMARK   24  A    between atoms: _52  and  _54
REMARK   25  A    between atoms: _54  and  _55
REMARK   26  A    between atoms: _54  and  _57
REMARK   27  A    between atoms: _57  and  _58
REMARK   28  A    between atoms: _61  and  _63
REMARK   29  A    between atoms: _63  and  _64
REMARK   30  A    between atoms: _66  and  _68
REMARK   31  A    between atoms: _68  and  _69
REMARK   32  A    between atoms: _68  and  _71
REMARK   33  A    between atoms: _71  and  _72
REMARK   34  A    between atoms: _75  and  _77
REMARK   35  A    between atoms: _77  and  _78
REMARK   36  A    between atoms: _77  and  _80
REMARK   37  A    between atoms: _80  and  _81
REMARK   38  A    between atoms: _86  and  _88
REMARK   39  A    between atoms: _88  and  _89
REMARK   40  A    between atoms: _88  and  _91
REMARK   41  A    between atoms: _91  and  _92
REMARK   42  A    between atoms: _95  and  _97
REMARK   43  A    between atoms: _97  and  _98
REMARK   44  A    between atoms: _97  and  _100
REMARK   45  A    between atoms: _100  and  _101
REMARK   46  A    between atoms: _104  and  _106
REMARK   47  A    between atoms: _106  and  _107
REMARK   48  A    between atoms: _106  and  _109
REMARK   49  A    between atoms: _109  and  _110
REMARK   50  A    between atoms: _110  and  _111
REMARK   51  A    between atoms: _111  and  _112
REMARK   52  A    between atoms: _121  and  _123
REMARK   53  A    between atoms: _123  and  _124
REMARK   54  A    between atoms: _123  and  _126
REMARK   55  A    between atoms: _126  and  _127
REMARK   56  A    between atoms: _130  and  _132
REMARK   57  A    between atoms: _132  and  _133
REMARK   58  A    between atoms: _132  and  _135
REMARK   59  A    between atoms: _135  and  _136
REMARK   60  A    between atoms: _139  and  _141
REMARK   61  A    between atoms: _141  and  _142
REMARK   62  A    between atoms: _141  and  _144
REMARK   63  A    between atoms: _144  and  _145
REMARK   64  A    between atoms: _145  and  _146
REMARK   65  A    between atoms: _146  and  _147
REMARK   66  A    between atoms: _156  and  _158
REMARK   67  A    between atoms: _158  and  _159
REMARK   68  A    between atoms: _158  and  _161
REMARK   69  A    between atoms: _161  and  _162
REMARK   70  A    between atoms: _165  and  _167
REMARK   71  A    between atoms: _167  and  _168
REMARK   72  A    between atoms: _167  and  _170
REMARK   73  A    between atoms: _170  and  _171
REMARK   74  A    between atoms: _171  and  _172
REMARK   75  A    between atoms: _177  and  _179
REMARK   76  A    between atoms: _179  and  _180
REMARK   77  A    between atoms: _179  and  _182
REMARK   78  A    between atoms: _182  and  _183
REMARK   79  A    between atoms: _186  and  _188
REMARK   80  A    between atoms: _188  and  _189
REMARK   81  A    between atoms: _188  and  _191
REMARK   82  A    between atoms: _191  and  _192
REMARK   83  A    between atoms: _195  and  _197
REMARK   84  A    between atoms: _197  and  _198
REMARK   85  A    between atoms: _197  and  _200
REMARK   86  A    between atoms: _203  and  _205
REMARK   87  A    between atoms: _205  and  _206
REMARK   88  A    between atoms: _205  and  _208
REMARK   89  A    between atoms: _208  and  _209
REMARK   90  A    between atoms: _209  and  _210
REMARK   91  A    between atoms: _210  and  _211
REMARK   92  A    between atoms: _220  and  _222
REMARK   93  A    between atoms: _222  and  _223
REMARK   94  A    between atoms: _222  and  _225
REMARK   95  A    between atoms: _225  and  _226
REMARK   96  A    between atoms: _229  and  _231
REMARK   97  A    between atoms: _231  and  _232
REMARK   98  A    between atoms: _231  and  _234
REMARK   99  A    between atoms: _234  and  _235
REMARK  100  A    between atoms: _237  and  _239
REMARK  101  A    between atoms: _239  and  _240
REMARK  102  A    between atoms: _239  and  _242
REMARK  103  A    between atoms: _245  and  _247
REMARK  104  A    between atoms: _247  and  _248
REMARK  105  A    between atoms: _247  and  _250
REMARK  106  A    between atoms: _252  and  _254
REMARK  107  A    between atoms: _254  and  _255
REMARK  108  A    between atoms: _254  and  _257
REMARK  109  A    between atoms: _257  and  _258
REMARK  110  A    between atoms: _263  and  _265
REMARK  111  A    between atoms: _265  and  _266
REMARK  112  A    between atoms: _269  and  _271
REMARK  113  A    between atoms: _271  and  _272
REMARK  114  A    between atoms: _274  and  _276
REMARK  115  A    between atoms: _276  and  _277
REMARK  116  A    between atoms: _276  and  _279
REMARK  117  A    between atoms: _279  and  _280
REMARK  118  A    between atoms: _283  and  _285
REMARK  119  A    between atoms: _285  and  _286
REMARK  120  A    between atoms: _288  and  _290
REMARK  121  A    between atoms: _290  and  _291
REMARK  122  A    between atoms: _290  and  _293
REMARK  123  A    between atoms: _293  and  _294
REMARK  124  A    between atoms: _297  and  _299
REMARK  125  A    between atoms: _299  and  _300
REMARK  126  A    between atoms: _299  and  _302
REMARK  127  A    between atoms: _302  and  _303
REMARK  128  A    between atoms: _306  and  _308
REMARK  129  A    between atoms: _308  and  _309
REMARK  130  A    between atoms: _308  and  _311
REMARK  131  A    between atoms: _311  and  _312
REMARK  132  A    between atoms: _314  and  _316
REMARK  133  A    between atoms: _316  and  _317
REMARK  134  A    between atoms: _316  and  _319
REMARK  135  A    between atoms: _319  and  _320
REMARK  136  A    between atoms: _323  and  _325
REMARK  137  A    between atoms: _325  and  _326
REMARK  138  A    between atoms: _325  and  _328
REMARK  139  A    between atoms: _331  and  _333
REMARK  140  A    between atoms: _333  and  _334
REMARK  141  A    between atoms: _333  and  _336
REMARK  142  A    between atoms: _336  and  _337
REMARK  143  A    between atoms: _342  and  _344
REMARK  144  A    between atoms: _344  and  _345
REMARK  145  A    between atoms: _347  and  _349
REMARK  146  A    between atoms: _349  and  _350
REMARK  147  A    between atoms: _349  and  _352
REMARK  148  A    between atoms: _352  and  _353
REMARK  149  A    between atoms: _353  and  _354
REMARK  150  A    between atoms: _354  and  _355
REMARK  151  A    between atoms: _364  and  _366
REMARK  152  A    between atoms: _366  and  _367
REMARK  153  A    between atoms: _366  and  _369
REMARK  154  A    between atoms: _369  and  _370
REMARK  155  A    between atoms: _370  and  _371
REMARK  156  A    between atoms: _373  and  _375
REMARK  157  A    between atoms: _375  and  _376
REMARK  158  A    between atoms: _375  and  _378
REMARK  159  A    between atoms: _378  and  _379
REMARK  160  A    between atoms: _382  and  _384
REMARK  161  A    between atoms: _384  and  _385
REMARK  162  A    between atoms: _387  and  _389
REMARK  163  A    between atoms: _389  and  _390
REMARK  164  A    between atoms: _389  and  _392
REMARK  165  A    between atoms: _392  and  _393
REMARK  166  A    between atoms: _395  and  _397
REMARK  167  A    between atoms: _397  and  _398
REMARK  168  A    between atoms: _397  and  _400
REMARK  169  A    between atoms: _403  and  _405
REMARK  170  A    between atoms: _405  and  _406
REMARK  171  A    between atoms: _408  and  _410
REMARK  172  A    between atoms: _410  and  _411
REMARK  173  A    between atoms: _413  and  _415
REMARK  174  A    between atoms: _415  and  _416
REMARK  175  A    between atoms: _415  and  _418
REMARK  176  A    between atoms: _418  and  _419
REMARK  177  A    between atoms: _422  and  _424
REMARK  178  A    between atoms: _424  and  _425
REMARK  179  A    between atoms: _424  and  _427
REMARK  180  A    between atoms: _427  and  _428
REMARK  181  A    between atoms: _428  and  _429
REMARK  182  A    between atoms: _431  and  _433
REMARK  183  A    between atoms: _433  and  _434
REMARK  184  A    between atoms: _436  and  _438
REMARK  185  A    between atoms: _438  and  _439
REMARK  186  A    between atoms: _438  and  _441
REMARK  187  A    between atoms: _441  and  _442
REMARK  188  A    between atoms: _446  and  _447
REMARK  189  A    between atoms: _452  and  _454
REMARK  190  A    between atoms: _454  and  _455
REMARK  191  A    between atoms: _454  and  _457
REMARK  192  A    between atoms: _457  and  _458
REMARK  193  A    between atoms: _463  and  _465
REMARK  194  A    between atoms: _465  and  _466
REMARK  195  A    between atoms: _465  and  _468
REMARK  196  A    between atoms: _468  and  _469
REMARK  197  A    between atoms: _474  and  _475
REMARK  198  A    between atoms: _477  and  _479
REMARK  199  A    between atoms: _479  and  _480
REMARK  200  A    between atoms: _479  and  _482
REMARK  201  A    between atoms: _484  and  _486
REMARK  202  A    between atoms: _486  and  _487
REMARK  203  A    between atoms: _486  and  _489
REMARK  204  A    between atoms: _489  and  _490
REMARK  205  A    between atoms: _490  and  _491
REMARK  206  A    between atoms: _491  and  _492
REMARK  207  A    between atoms: _492  and  _493
REMARK  208  A    between atoms: _497  and  _499
REMARK  209  A    between atoms: _499  and  _500
REMARK  210  A    between atoms: _499  and  _502
REMARK  211  A    between atoms: _502  and  _503
REMARK  212  A    between atoms: _503  and  _504
REMARK  213  A    between atoms: _507  and  _509
REMARK  214  A    between atoms: _509  and  _510
REMARK  215  A    between atoms: _509  and  _512
REMARK  216  A    between atoms: _514  and  _516
REMARK  217  A    between atoms: _516  and  _517
REMARK  218  A    between atoms: _520  and  _521
REMARK  219  A    between atoms: _526  and  _528
REMARK  220  A    between atoms: _528  and  _529
REMARK  221  A    between atoms: _528  and  _531
REMARK  222  A    between atoms: _534  and  _536
REMARK  223  A    between atoms: _536  and  _537
REMARK  224  A    between atoms: _536  and  _539
REMARK  225  A    between atoms: _539  and  _540
REMARK  226  A    between atoms: _543  and  _545
REMARK  227  A    between atoms: _545  and  _546
REMARK  228  A    between atoms: _545  and  _548
REMARK  229  A    between atoms: _548  and  _549
REMARK  230  A    between atoms: _555  and  _557
REMARK  231  A    between atoms: _557  and  _558
REMARK  232  A    between atoms: _557  and  _560
REMARK  233  A    between atoms: _560  and  _561
REMARK  234  A    between atoms: _561  and  _562
REMARK  235  A    between atoms: _564  and  _566
REMARK  236  A    between atoms: _566  and  _567
REMARK  237  A    between atoms: _566  and  _569
REMARK  238  A    between atoms: _569  and  _570
REMARK  239  A    between atoms: _570  and  _571
REMARK  240  A    between atoms: _574  and  _576
REMARK  241  A    between atoms: _576  and  _577
REMARK  242  A    between atoms: _576  and  _579
REMARK  243  A    between atoms: _579  and  _580
REMARK  244  A    between atoms: _580  and  _581
REMARK  245  A    between atoms: _581  and  _582
REMARK  246  A    between atoms: _582  and  _583
REMARK  247  A    between atoms: _587  and  _589
REMARK  248  A    between atoms: _589  and  _590
REMARK  249  A    between atoms: _589  and  _592
REMARK  250  A    between atoms: _592  and  _593
REMARK  251  A    between atoms: _598  and  _599
REMARK  252  A    between atoms: _601  and  _603
REMARK  253  A    between atoms: _603  and  _604
REMARK  254  A    between atoms: _603  and  _606
REMARK  255  A    between atoms: _606  and  _607
REMARK  256  A    between atoms: _610  and  _612
REMARK  257  A    between atoms: _612  and  _613
REMARK  258  A    between atoms: _612  and  _615
REMARK  259  A    between atoms: _615  and  _616
REMARK  260  A    between atoms: _621  and  _623
REMARK  261  A    between atoms: _623  and  _624
REMARK  262  A    between atoms: _623  and  _626
REMARK  263  A    between atoms: _626  and  _627
REMARK  264  A    between atoms: _629  and  _631
REMARK  265  A    between atoms: _631  and  _632
REMARK  266  A    between atoms: _631  and  _634
REMARK  267  A    between atoms: _634  and  _635
REMARK  268  A    between atoms: _635  and  _636
REMARK  269  A    between atoms: _636  and  _637
REMARK  270  A    between atoms: _637  and  _638
REMARK  271  A    between atoms: _642  and  _644
REMARK  272  A    between atoms: _644  and  _645
REMARK  273  A    between atoms: _644  and  _647
REMARK  274  A    between atoms: _647  and  _648
REMARK  275  A    between atoms: _648  and  _649
REMARK  276  A    between atoms: _654  and  _656
REMARK  277  A    between atoms: _656  and  _657
REMARK  278  A    between atoms: _656  and  _659
REMARK  279  A    between atoms: _662  and  _664
REMARK  280  A    between atoms: _664  and  _665
REMARK  281  A    between atoms: _664  and  _667
REMARK  282  A    between atoms: _667  and  _668
REMARK  283  A    between atoms: _674  and  _676
REMARK  284  A    between atoms: _676  and  _677
REMARK  285  A    between atoms: _680  and  _682
REMARK  286  A    between atoms: _682  and  _683
REMARK  287  A    between atoms: _682  and  _685
REMARK  288  A    between atoms: _685  and  _686
REMARK  289  A    between atoms: _689  and  _691
REMARK  290  A    between atoms: _691  and  _692
REMARK  291  A    between atoms: _691  and  _694
REMARK  292  A    between atoms: _694  and  _695
REMARK  293  A    between atoms: _695  and  _696
REMARK  294  A    between atoms: _696  and  _697
REMARK  295  A    between atoms: _706  and  _708
REMARK  296  A    between atoms: _708  and  _709
REMARK  297  A    between atoms: _708  and  _711
REMARK  298  A    between atoms: _711  and  _712
REMARK  299  A    between atoms: _718  and  _720
REMARK  300  A    between atoms: _720  and  _721
REMARK  301  A    between atoms: _720  and  _723
REMARK  302  A    between atoms: _723  and  _724
REMARK  303  A    between atoms: _727  and  _729
REMARK  304  A    between atoms: _729  and  _730
REMARK  305  A    between atoms: _729  and  _732
REMARK  306  A    between atoms: _732  and  _733
REMARK  307  A    between atoms: _738  and  _739
REMARK  308  A    between atoms: _741  and  _743
REMARK  309  A    between atoms: _743  and  _744
REMARK  310  A    between atoms: _747  and  _749
REMARK  311  A    between atoms: _749  and  _750
REMARK  312  A    between atoms: _749  and  _752
REMARK  313  A    between atoms: _752  and  _753
REMARK  314  A    between atoms: _753  and  _754
REMARK  315  A    between atoms: _756  and  _758
REMARK  316  A    between atoms: _758  and  _759
REMARK  317  A    between atoms: _758  and  _761
REMARK  318  A    between atoms: _761  and  _762
REMARK  319  A    between atoms: _767  and  _769
REMARK  320  A    between atoms: _769  and  _770
REMARK  321  A    between atoms: _769  and  _772
REMARK  322  A    between atoms: _772  and  _773
REMARK  323  A    between atoms: _773  and  _774
REMARK  324  A    between atoms: _774  and  _775
REMARK  325  A    between atoms: _784  and  _786
REMARK  326  A    between atoms: _786  and  _787
REMARK  327  A    between atoms: _786  and  _789
REMARK  328  A    between atoms: _789  and  _790
REMARK  329  A    between atoms: _790  and  _791
REMARK  330  A    between atoms: _794  and  _796
REMARK  331  A    between atoms: _796  and  _797
REMARK  332  A    between atoms: _796  and  _799
REMARK  333  A    between atoms: _802  and  _804
REMARK  334  A    between atoms: _804  and  _805
REMARK  335  A    between atoms: _804  and  _807
REMARK  336  A    between atoms: _807  and  _808
REMARK                            x       y       z     vdW  Elec       q    Type
REMARK                         _______ _______ _______ _____ _____    ______ ____
ROOT
ATOM      1  CA  VAL A   2       8.033  -7.207   0.098  0.00  0.00    +0.148 C 
ENDROOT
BRANCH   1   4
ATOM      2  C   ASP A   1       5.841  -7.873   0.785  0.00  0.00    +0.239 C 
ATOM      3  O   ASP A   1       6.185  -7.836   1.963  0.00  0.00    -0.274 OA
ATOM      4  N   VAL A   2       6.665  -7.599  -0.225  0.00  0.00    -0.297 N 
ATOM      5  H   VAL A   2       6.344  -7.662  -1.212  0.00  0.00    +0.150 HD
BRANCH   2   6
ATOM      6  CA  ASP A   1       4.442  -8.298   0.375  0.00  0.00    +0.156 C 
BRANCH   6   7
ATOM      7  N   ASP A   1       3.907  -7.467  -0.695  0.00  0.00    -0.238 NA
ATOM      8  H   ASP A   1       3.687  -7.880  -1.624  0.00  0.00    +0.142 HD
ENDBRANCH   6   7
BRANCH   6   9
ATOM      9  CB  ASP A   1       4.483  -9.745  -0.120  0.00  0.00    +0.140 C 
BRANCH   9  10
ATOM     10  CG  ASP A   1       4.858 -10.651   1.042  0.00  0.00    +0.367 C 
ATOM     11  OD2 ASP A   1       4.360 -10.410   2.158  0.00  0.00    -0.246 OA
ATOM     12  OD1 ASP A   1       5.659 -11.558   0.775  0.00  0.00    -0.246 OA
ENDBRANCH   9  10
ENDBRANCH   6   9
ENDBRANCH   2   6
ENDBRANCH   1   4
BRANCH   1  13
ATOM     13  C   VAL A   2       8.075  -5.785   0.618  0.00  0.00    +0.241 C 
ATOM     14  O   VAL A   2       8.581  -5.504   1.693  0.00  0.00    -0.273 OA
ATOM     15  N   ASN A   3       7.485  -4.884  -0.176  0.00  0.00    -0.298 N 
ATOM     16  H   ASN A   3       6.933  -5.189  -1.003  0.00  0.00    +0.150 HD
BRANCH  15  17
ATOM     17  CA  ASN A   3       7.628  -3.466   0.137  0.00  0.00    +0.146 C 
BRANCH  17  18
ATOM     18  C   ASN A   3       6.866  -3.041   1.380  0.00  0.00    +0.227 C 
ATOM     19  O   ASN A   3       7.369  -2.241   2.165  0.00  0.00    -0.286 OA
ENDBRANCH  17  18
BRANCH  17  20
ATOM     20  CB  ASN A   3       7.150  -2.603  -1.039  0.00  0.00    +0.112 C 
BRANCH  20  21
ATOM     21  CG  ASN A   3       8.049  -2.857  -2.242  0.00  0.00    +0.222 C 
ATOM     22  OD1 ASN A   3       8.943  -3.696  -2.206  0.00  0.00    -0.275 OA
ATOM     23  ND2 ASN A   3       7.796  -2.137  -3.325  0.00  0.00    -0.329 N 
ATOM     24 HD21 ASN A   3       7.029  -1.435  -3.315  0.00  0.00    +0.145 HD
ATOM     25 HD22 ASN A   3       8.365  -2.274  -4.185  0.00  0.00    +0.145 HD
ENDBRANCH  20  21
ENDBRANCH  17  20
ENDBRANCH  15  17
ENDBRANCH   1  13
BRANCH   1  26
ATOM     26  CB  VAL A   2       8.946  -7.338  -1.129  0.00  0.00    +0.027 C 
ATOM     27  CG2 VAL A   2      10.326  -6.760  -0.837  0.00  0.00    +0.002 C 
ATOM     28  CG1 VAL A   2       9.064  -8.808  -1.507  0.00  0.00    +0.002 C 
ENDBRANCH   1  26
TORSDOF 11
REMARK  Name = ../refined-set-2016/1i5r/1i5r_pocket.pdb
REMARK  336 active torsions:
REMARK  status: ('A' for Active; 'I' for Inactive)
REMARK    1  A    between atoms: _1  and  _3
REMARK    2  A    between atoms: _3  and  _4
REMARK    3  A    between atoms: _3  and  _6
REMARK    4  A    between atoms: _6  and  _7
REMARK    5  A    between atoms: _10  and  _12
REMARK    6  A    between atoms: _12  and  _13
REMARK    7  A    between atoms: _12  and  _15
REMARK    8  A    between atoms: _15  and  _16
REMARK    9  A    between atoms: _19  and  _21
REMARK   10  A    between atoms: _21  and  _22
REMARK   11  A    between atoms: _24  and  _26
REMARK   12  A    between atoms: _26  and  _27
REMARK   13  A    between atoms: _26  and  _29
REMARK   14  A    between atoms: _31  and  _33
REMARK   15  A    between atoms: _33  and  _34
REMARK   16  A    between atoms: _33  and  _36
REMARK   17  A    between atoms: _36  and  _37
REMARK   18  A    between atoms: _39  and  _41
REMARK   19  A    between atoms: _41  and  _42
REMARK   20  A    between atoms: _41  and  _44
REMARK   21  A    between atoms: _44  and  _45
REMARK   22  A    between atoms: _47  and  _49
REMARK   23  A    between atoms: _49  and  _50
REMARK   24  A    between atoms: _52  and  _54
REMARK   25  A    between atoms: _54  and  _55
REMARK   26  A    between atoms: _54  and  _57
REMARK   27  A    between atoms: _57  and  _58
REMARK   28  A    between atoms: _61  and  _63
REMARK   29  A    between atoms: _63  and  _64
REMARK   30  A    between atoms: _66  and  _68
REMARK   31  A    between atoms: _68  and  _69
REMARK   32  A    between atoms: _68  and  _71
REMARK   33  A    between atoms: _71  and  _72
REMARK   34  A    between atoms: _75  and  _77
REMARK   35  A    between atoms: _77  and  _78
REMARK   36  A    between atoms: _77  and  _80
REMARK   37  A    between atoms: _80  and  _81
REMARK   38  A    between atoms: _86  and  _88
REMARK   39  A    between atoms: _88  and  _89
REMARK   40  A    between atoms: _88  and  _91
REMARK   41  A    between atoms: _91  and  _92
REMARK   42  A    between atoms: _95  and  _97
REMARK   43  A    between atoms: _97  and  _98
REMARK   44  A    between atoms: _97  and  _100
REMARK   45  A    between atoms: _100  and  _101
REMARK   46  A    between atoms: _104  and  _106
REMARK   47  A    between atoms: _106  and  _107
REMARK   48  A    between atoms: _106  and  _109
REMARK   49  A    between atoms: _109  and  _110
REMARK   50  A    between atoms: _110  and  _111
REMARK   51  A    between atoms: _111  and  _112
REMARK   52  A    between atoms: _121  and  _123
REMARK   53  A    between atoms: _123  and  _124
REMARK   54  A    between atoms: _123  and  _126
REMARK   55  A    between atoms: _126  and  _127
REMARK   56  A    between atoms: _130  and  _132
REMARK   57  A    between atoms: _132  and  _133
REMARK   58  A    between atoms: _132  and  _135
REMARK   59  A    between atoms: _135  and  _136
REMARK   60  A    between atoms: _139  and  _141
REMARK   61  A    between atoms: _141  and  _142
REMARK   62  A    between atoms: _141  and  _144
REMARK   63  A    between atoms: _144  and  _145
REMARK   64  A    between atoms: _145  and  _146
REMARK   65  A    between atoms: _146  and  _147
REMARK   66  A    between atoms: _156  and  _158
REMARK   67  A    between atoms: _158  and  _159
REMARK   68  A    between atoms: _158  and  _161
REMARK   69  A    between atoms: _161  and  _162
REMARK   70  A    between atoms: _165  and  _167
REMARK   71  A    between atoms: _167  and  _168
REMARK   72  A    between atoms: _167  and  _170
REMARK   73  A    between atoms: _170  and  _171
REMARK   74  A    between atoms: _171  and  _172
REMARK   75  A    between atoms: _177  and  _179
REMARK   76  A    between atoms: _179  and  _180
REMARK   77  A    between atoms: _179  and  _182
REMARK   78  A    between atoms: _182  and  _183
REMARK   79  A    between atoms: _186  and  _188
REMARK   80  A    between atoms: _188  and  _189
REMARK   81  A    between atoms: _188  and  _191
REMARK   82  A    between atoms: _191  and  _192
REMARK   83  A    between atoms: _195  and  _197
REMARK   84  A    between atoms: _197  and  _198
REMARK   85  A    between atoms: _197  and  _200
REMARK   86  A    between atoms: _203  and  _205
REMARK   87  A    between atoms: _205  and  _206
REMARK   88  A    between atoms: _205  and  _208
REMARK   89  A    between atoms: _208  and  _209
REMARK   90  A    between atoms: _209  and  _210
REMARK   91  A    between atoms: _210  and  _211
REMARK   92  A    between atoms: _220  and  _222
REMARK   93  A    between atoms: _222  and  _223
REMARK   94  A    between atoms: _222  and  _225
REMARK   95  A    between atoms: _225  and  _226
REMARK   96  A    between atoms: _229  and  _231
REMARK   97  A    between atoms: _231  and  _232
REMARK   98  A    between atoms: _231  and  _234
REMARK   99  A    between atoms: _234  and  _235
REMARK  100  A    between atoms: _237  and  _239
REMARK  101  A    between atoms: _239  and  _240
REMARK  102  A    between atoms: _239  and  _242
REMARK  103  A    between atoms: _245  and  _247
REMARK  104  A    between atoms: _247  and  _248
REMARK  105  A    between atoms: _247  and  _250
REMARK  106  A    between atoms: _252  and  _254
REMARK  107  A    between atoms: _254  and  _255
REMARK  108  A    between atoms: _254  and  _257
REMARK  109  A    between atoms: _257  and  _258
REMARK  110  A    between atoms: _263  and  _265
REMARK  111  A    between atoms: _265  and  _266
REMARK  112  A    between atoms: _269  and  _271
REMARK  113  A    between atoms: _271  and  _272
REMARK  114  A    between atoms: _274  and  _276
REMARK  115  A    between atoms: _276  and  _277
REMARK  116  A    between atoms: _276  and  _279
REMARK  117  A    between atoms: _279  and  _280
REMARK  118  A    between atoms: _283  and  _285
REMARK  119  A    between atoms: _285  and  _286
REMARK  120  A    between atoms: _288  and  _290
REMARK  121  A    between atoms: _290  and  _291
REMARK  122  A    between atoms: _290  and  _293
REMARK  123  A    between atoms: _293  and  _294
REMARK  124  A    between atoms: _297  and  _299
REMARK  125  A    between atoms: _299  and  _300
REMARK  126  A    between atoms: _299  and  _302
REMARK  127  A    between atoms: _302  and  _303
REMARK  128  A    between atoms: _306  and  _308
REMARK  129  A    between atoms: _308  and  _309
REMARK  130  A    between atoms: _308  and  _311
REMARK  131  A    between atoms: _311  and  _312
REMARK  132  A    between atoms: _314  and  _316
REMARK  133  A    between atoms: _316  and  _317
REMARK  134  A    between atoms: _316  and  _319
REMARK  135  A    between atoms: _319  and  _320
REMARK  136  A    between atoms: _323  and  _325
REMARK  137  A    between atoms: _325  and  _326
REMARK  138  A    between atoms: _325  and  _328
REMARK  139  A    between atoms: _331  and  _333
REMARK  140  A    between atoms: _333  and  _334
REMARK  141  A    between atoms: _333  and  _336
REMARK  142  A    between atoms: _336  and  _337
REMARK  143  A    between atoms: _342  and  _344
REMARK  144  A    between atoms: _344  and  _345
REMARK  145  A    between atoms: _347  and  _349
REMARK  146  A    between atoms: _349  and  _350
REMARK  147  A    between atoms: _349  and  _352
REMARK  148  A    between atoms: _352  and  _353
REMARK  149  A    between atoms: _353  and  _354
REMARK  150  A    between atoms: _354  and  _355
REMARK  151  A    between atoms: _364  and  _366
REMARK  152  A    between atoms: _366  and  _367
REMARK  153  A    between atoms: _366  and  _369
REMARK  154  A    between atoms: _369  and  _370
REMARK  155  A    between atoms: _370  and  _371
REMARK  156  A    between atoms: _373  and  _375
REMARK  157  A    between atoms: _375  and  _376
REMARK  158  A    between atoms: _375  and  _378
REMARK  159  A    between atoms: _378  and  _379
REMARK  160  A    between atoms: _382  and  _384
REMARK  161  A    between atoms: _384  and  _385
REMARK  162  A    between atoms: _387  and  _389
REMARK  163  A    between atoms: _389  and  _390
REMARK  164  A    between atoms: _389  and  _392
REMARK  165  A    between atoms: _392  and  _393
REMARK  166  A    between atoms: _395  and  _397
REMARK  167  A    between atoms: _397  and  _398
REMARK  168  A    between atoms: _397  and  _400
REMARK  169  A    between atoms: _403  and  _405
REMARK  170  A    between atoms: _405  and  _406
REMARK  171  A    between atoms: _408  and  _410
REMARK  172  A    between atoms: _410  and  _411
REMARK  173  A    between atoms: _413  and  _415
REMARK  174  A    between atoms: _415  and  _416
REMARK  175  A    between atoms: _415  and  _418
REMARK  176  A    between atoms: _418  and  _419
REMARK  177  A    between atoms: _422  and  _424
REMARK  178  A    between atoms: _424  and  _425
REMARK  179  A    between atoms: _424  and  _427
REMARK  180  A    between atoms: _427  and  _428
REMARK  181  A    between atoms: _428  and  _429
REMARK  182  A    between atoms: _431  and  _433
REMARK  183  A    between atoms: _433  and  _434
REMARK  184  A    between atoms: _436  and  _438
REMARK  185  A    between atoms: _438  and  _439
REMARK  186  A    between atoms: _438  and  _441
REMARK  187  A    between atoms: _441  and  _442
REMARK  188  A    between atoms: _446  and  _447
REMARK  189  A    between atoms: _452  and  _454
REMARK  190  A    between atoms: _454  and  _455
REMARK  191  A    between atoms: _454  and  _457
REMARK  192  A    between atoms: _457  and  _458
REMARK  193  A    between atoms: _463  and  _465
REMARK  194  A    between atoms: _465  and  _466
REMARK  195  A    between atoms: _465  and  _468
REMARK  196  A    between atoms: _468  and  _469
REMARK  197  A    between atoms: _474  and  _475
REMARK  198  A    between atoms: _477  and  _479
REMARK  199  A    between atoms: _479  and  _480
REMARK  200  A    between atoms: _479  and  _482
REMARK  201  A    between atoms: _484  and  _486
REMARK  202  A    between atoms: _486  and  _487
REMARK  203  A    between atoms: _486  and  _489
REMARK  204  A    between atoms: _489  and  _490
REMARK  205  A    between atoms: _490  and  _491
REMARK  206  A    between atoms: _491  and  _492
REMARK  207  A    between atoms: _492  and  _493
REMARK  208  A    between atoms: _497  and  _499
REMARK  209  A    between atoms: _499  and  _500
REMARK  210  A    between atoms: _499  and  _502
REMARK  211  A    between atoms: _502  and  _503
REMARK  212  A    between atoms: _503  and  _504
REMARK  213  A    between atoms: _507  and  _509
REMARK  214  A    between atoms: _509  and  _510
REMARK  215  A    between atoms: _509  and  _512
REMARK  216  A    between atoms: _514  and  _516
REMARK  217  A    between atoms: _516  and  _517
REMARK  218  A    between atoms: _520  and  _521
REMARK  219  A    between atoms: _526  and  _528
REMARK  220  A    between atoms: _528  and  _529
REMARK  221  A    between atoms: _528  and  _531
REMARK  222  A    between atoms: _534  and  _536
REMARK  223  A    between atoms: _536  and  _537
REMARK  224  A    between atoms: _536  and  _539
REMARK  225  A    between atoms: _539  and  _540
REMARK  226  A    between atoms: _543  and  _545
REMARK  227  A    between atoms: _545  and  _546
REMARK  228  A    between atoms: _545  and  _548
REMARK  229  A    between atoms: _548  and  _549
REMARK  230  A    between atoms: _555  and  _557
REMARK  231  A    between atoms: _557  and  _558
REMARK  232  A    between atoms: _557  and  _560
REMARK  233  A    between atoms: _560  and  _561
REMARK  234  A    between atoms: _561  and  _562
REMARK  235  A    between atoms: _564  and  _566
REMARK  236  A    between atoms: _566  and  _567
REMARK  237  A    between atoms: _566  and  _569
REMARK  238  A    between atoms: _569  and  _570
REMARK  239  A    between atoms: _570  and  _571
REMARK  240  A    between atoms: _574  and  _576
REMARK  241  A    between atoms: _576  and  _577
REMARK  242  A    between atoms: _576  and  _579
REMARK  243  A    between atoms: _579  and  _580
REMARK  244  A    between atoms: _580  and  _581
REMARK  245  A    between atoms: _581  and  _582
REMARK  246  A    between atoms: _582  and  _583
REMARK  247  A    between atoms: _587  and  _589
REMARK  248  A    between atoms: _589  and  _590
REMARK  249  A    between atoms: _589  and  _592
REMARK  250  A    between atoms: _592  and  _593
REMARK  251  A    between atoms: _598  and  _599
REMARK  252  A    between atoms: _601  and  _603
REMARK  253  A    between atoms: _603  and  _604
REMARK  254  A    between atoms: _603  and  _606
REMARK  255  A    between atoms: _606  and  _607
REMARK  256  A    between atoms: _610  and  _612
REMARK  257  A    between atoms: _612  and  _613
REMARK  258  A    between atoms: _612  and  _615
REMARK  259  A    between atoms: _615  and  _616
REMARK  260  A    between atoms: _621  and  _623
REMARK  261  A    between atoms: _623  and  _624
REMARK  262  A    between atoms: _623  and  _626
REMARK  263  A    between atoms: _626  and  _627
REMARK  264  A    between atoms: _629  and  _631
REMARK  265  A    between atoms: _631  and  _632
REMARK  266  A    between atoms: _631  and  _634
REMARK  267  A    between atoms: _634  and  _635
REMARK  268  A    between atoms: _635  and  _636
REMARK  269  A    between atoms: _636  and  _637
REMARK  270  A    between atoms: _637  and  _638
REMARK  271  A    between atoms: _642  and  _644
REMARK  272  A    between atoms: _644  and  _645
REMARK  273  A    between atoms: _644  and  _647
REMARK  274  A    between atoms: _647  and  _648
REMARK  275  A    between atoms: _648  and  _649
REMARK  276  A    between atoms: _654  and  _656
REMARK  277  A    between atoms: _656  and  _657
REMARK  278  A    between atoms: _656  and  _659
REMARK  279  A    between atoms: _662  and  _664
REMARK  280  A    between atoms: _664  and  _665
REMARK  281  A    between atoms: _664  and  _667
REMARK  282  A    between atoms: _667  and  _668
REMARK  283  A    between atoms: _674  and  _676
REMARK  284  A    between atoms: _676  and  _677
REMARK  285  A    between atoms: _680  and  _682
REMARK  286  A    between atoms: _682  and  _683
REMARK  287  A    between atoms: _682  and  _685
REMARK  288  A    between atoms: _685  and  _686
REMARK  289  A    between atoms: _689  and  _691
REMARK  290  A    between atoms: _691  and  _692
REMARK  291  A    between atoms: _691  and  _694
REMARK  292  A    between atoms: _694  and  _695
REMARK  293  A    between atoms: _695  and  _696
REMARK  294  A    between atoms: _696  and  _697
REMARK  295  A    between atoms: _706  and  _708
REMARK  296  A    between atoms: _708  and  _709
REMARK  297  A    between atoms: _708  and  _711
REMARK  298  A    between atoms: _711  and  _712
REMARK  299  A    between atoms: _718  and  _720
REMARK  300  A    between atoms: _720  and  _721
REMARK  301  A    between atoms: _720  and  _723
REMARK  302  A    between atoms: _723  and  _724
REMARK  303  A    between atoms: _727  and  _729
REMARK  304  A    between atoms: _729  and  _730
REMARK  305  A    between atoms: _729  and  _732
REMARK  306  A    between atoms: _732  and  _733
REMARK  307  A    between atoms: _738  and  _739
REMARK  308  A    between atoms: _741  and  _743
REMARK  309  A    between atoms: _743  and  _744
REMARK  310  A    between atoms: _747  and  _749
REMARK  311  A    between atoms: _749  and  _750
REMARK  312  A    between atoms: _749  and  _752
REMARK  313  A    between atoms: _752  and  _753
REMARK  314  A    between atoms: _753  and  _754
REMARK  315  A    between atoms: _756  and  _758
REMARK  316  A    between atoms: _758  and  _759
REMARK  317  A    between atoms: _758  and  _761
REMARK  318  A    between atoms: _761  and  _762
REMARK  319  A    between atoms: _767  and  _769
REMARK  320  A    between atoms: _769  and  _770
REMARK  321  A    between atoms: _769  and  _772
REMARK  322  A    between atoms: _772  and  _773
REMARK  323  A    between atoms: _773  and  _774
REMARK  324  A    between atoms: _774  and  _775
REMARK  325  A    between atoms: _784  and  _786
REMARK  326  A    between atoms: _786  and  _787
REMARK  327  A    between atoms: _786  and  _789
REMARK  328  A    between atoms: _789  and  _790
REMARK  329  A    between atoms: _790  and  _791
REMARK  330  A    between atoms: _794  and  _796
REMARK  331  A    between atoms: _796  and  _797
REMARK  332  A    between atoms: _796  and  _799
REMARK  333  A    between atoms: _802  and  _804
REMARK  334  A    between atoms: _804  and  _805
REMARK  335  A    between atoms: _804  and  _807
REMARK  336  A    between atoms: _807  and  _808
REMARK                            x       y       z     vdW  Elec       q    Type
REMARK                         _______ _______ _______ _____ _____    ______ ____
ROOT
ATOM      1  CA  GLY A   1       8.027  -6.939   4.600  0.00  0.00    +0.156 C 
ENDROOT
BRANCH   1   2
ATOM      2  N   GLY A   1       6.658  -6.673   4.190  0.00  0.00    -0.238 NA
ATOM      3  H   GLY A   1       6.455  -6.514   3.182  0.00  0.00    +0.142 HD
ENDBRANCH   1   2
BRANCH   1   4
ATOM      4  C   GLY A   1       8.505  -5.886   5.589  0.00  0.00    +0.226 C 
ATOM      5  O   GLY A   1       9.126  -6.170   6.595  0.00  0.00    -0.287 OA
ENDBRANCH   1   4
TORSDOF 2
REMARK  Name = ../refined-set-2016/1i5r/1i5r_pocket.pdb
REMARK  336 active torsions:
REMARK  status: ('A' for Active; 'I' for Inactive)
REMARK    1  A    between atoms: _1  and  _3
REMARK    2  A    between atoms: _3  and  _4
REMARK    3  A    between atoms: _3  and  _6
REMARK    4  A    between atoms: _6  and  _7
REMARK    5  A    between atoms: _10  and  _12
REMARK    6  A    between atoms: _12  and  _13
REMARK    7  A    between atoms: _12  and  _15
REMARK    8  A    between atoms: _15  and  _16
REMARK    9  A    between atoms: _19  and  _21
REMARK   10  A    between atoms: _21  and  _22
REMARK   11  A    between atoms: _24  and  _26
REMARK   12  A    between atoms: _26  and  _27
REMARK   13  A    between atoms: _26  and  _29
REMARK   14  A    between atoms: _31  and  _33
REMARK   15  A    between atoms: _33  and  _34
REMARK   16  A    between atoms: _33  and  _36
REMARK   17  A    between atoms: _36  and  _37
REMARK   18  A    between atoms: _39  and  _41
REMARK   19  A    between atoms: _41  and  _42
REMARK   20  A    between atoms: _41  and  _44
REMARK   21  A    between atoms: _44  and  _45
REMARK   22  A    between atoms: _47  and  _49
REMARK   23  A    between atoms: _49  and  _50
REMARK   24  A    between atoms: _52  and  _54
REMARK   25  A    between atoms: _54  and  _55
REMARK   26  A    between atoms: _54  and  _57
REMARK   27  A    between atoms: _57  and  _58
REMARK   28  A    between atoms: _61  and  _63
REMARK   29  A    between atoms: _63  and  _64
REMARK   30  A    between atoms: _66  and  _68
REMARK   31  A    between atoms: _68  and  _69
REMARK   32  A    between atoms: _68  and  _71
REMARK   33  A    between atoms: _71  and  _72
REMARK   34  A    between atoms: _75  and  _77
REMARK   35  A    between atoms: _77  and  _78
REMARK   36  A    between atoms: _77  and  _80
REMARK   37  A    between atoms: _80  and  _81
REMARK   38  A    between atoms: _86  and  _88
REMARK   39  A    between atoms: _88  and  _89
REMARK   40  A    between atoms: _88  and  _91
REMARK   41  A    between atoms: _91  and  _92
REMARK   42  A    between atoms: _95  and  _97
REMARK   43  A    between atoms: _97  and  _98
REMARK   44  A    between atoms: _97  and  _100
REMARK   45  A    between atoms: _100  and  _101
REMARK   46  A    between atoms: _104  and  _106
REMARK   47  A    between atoms: _106  and  _107
REMARK   48  A    between atoms: _106  and  _109
REMARK   49  A    between atoms: _109  and  _110
REMARK   50  A    between atoms: _110  and  _111
REMARK   51  A    between atoms: _111  and  _112
REMARK   52  A    between atoms: _121  and  _123
REMARK   53  A    between atoms: _123  and  _124
REMARK   54  A    between atoms: _123  and  _126
REMARK   55  A    between atoms: _126  and  _127
REMARK   56  A    between atoms: _130  and  _132
REMARK   57  A    between atoms: _132  and  _133
REMARK   58  A    between atoms: _132  and  _135
REMARK   59  A    between atoms: _135  and  _136
REMARK   60  A    between atoms: _139  and  _141
REMARK   61  A    between atoms: _141  and  _142
REMARK   62  A    between atoms: _141  and  _144
REMARK   63  A    between atoms: _144  and  _145
REMARK   64  A    between atoms: _145  and  _146
REMARK   65  A    between atoms: _146  and  _147
REMARK   66  A    between atoms: _156  and  _158
REMARK   67  A    between atoms: _158  and  _159
REMARK   68  A    between atoms: _158  and  _161
REMARK   69  A    between atoms: _161  and  _162
REMARK   70  A    between atoms: _165  and  _167
REMARK   71  A    between atoms: _167  and  _168
REMARK   72  A    between atoms: _167  and  _170
REMARK   73  A    between atoms: _170  and  _171
REMARK   74  A    between atoms: _171  and  _172
REMARK   75  A    between atoms: _177  and  _179
REMARK   76  A    between atoms: _179  and  _180
REMARK   77  A    between atoms: _179  and  _182
REMARK   78  A    between atoms: _182  and  _183
REMARK   79  A    between atoms: _186  and  _188
REMARK   80  A    between atoms: _188  and  _189
REMARK   81  A    between atoms: _188  and  _191
REMARK   82  A    between atoms: _191  and  _192
REMARK   83  A    between atoms: _195  and  _197
REMARK   84  A    between atoms: _197  and  _198
REMARK   85  A    between atoms: _197  and  _200
REMARK   86  A    between atoms: _203  and  _205
REMARK   87  A    between atoms: _205  and  _206
REMARK   88  A    between atoms: _205  and  _208
REMARK   89  A    between atoms: _208  and  _209
REMARK   90  A    between atoms: _209  and  _210
REMARK   91  A    between atoms: _210  and  _211
REMARK   92  A    between atoms: _220  and  _222
REMARK   93  A    between atoms: _222  and  _223
REMARK   94  A    between atoms: _222  and  _225
REMARK   95  A    between atoms: _225  and  _226
REMARK   96  A    between atoms: _229  and  _231
REMARK   97  A    between atoms: _231  and  _232
REMARK   98  A    between atoms: _231  and  _234
REMARK   99  A    between atoms: _234  and  _235
REMARK  100  A    between atoms: _237  and  _239
REMARK  101  A    between atoms: _239  and  _240
REMARK  102  A    between atoms: _239  and  _242
REMARK  103  A    between atoms: _245  and  _247
REMARK  104  A    between atoms: _247  and  _248
REMARK  105  A    between atoms: _247  and  _250
REMARK  106  A    between atoms: _252  and  _254
REMARK  107  A    between atoms: _254  and  _255
REMARK  108  A    between atoms: _254  and  _257
REMARK  109  A    between atoms: _257  and  _258
REMARK  110  A    between atoms: _263  and  _265
REMARK  111  A    between atoms: _265  and  _266
REMARK  112  A    between atoms: _269  and  _271
REMARK  113  A    between atoms: _271  and  _272
REMARK  114  A    between atoms: _274  and  _276
REMARK  115  A    between atoms: _276  and  _277
REMARK  116  A    between atoms: _276  and  _279
REMARK  117  A    between atoms: _279  and  _280
REMARK  118  A    between atoms: _283  and  _285
REMARK  119  A    between atoms: _285  and  _286
REMARK  120  A    between atoms: _288  and  _290
REMARK  121  A    between atoms: _290  and  _291
REMARK  122  A    between atoms: _290  and  _293
REMARK  123  A    between atoms: _293  and  _294
REMARK  124  A    between atoms: _297  and  _299
REMARK  125  A    between atoms: _299  and  _300
REMARK  126  A    between atoms: _299  and  _302
REMARK  127  A    between atoms: _302  and  _303
REMARK  128  A    between atoms: _306  and  _308
REMARK  129  A    between atoms: _308  and  _309
REMARK  130  A    between atoms: _308  and  _311
REMARK  131  A    between atoms: _311  and  _312
REMARK  132  A    between atoms: _314  and  _316
REMARK  133  A    between atoms: _316  and  _317
REMARK  134  A    between atoms: _316  and  _319
REMARK  135  A    between atoms: _319  and  _320
REMARK  136  A    between atoms: _323  and  _325
REMARK  137  A    between atoms: _325  and  _326
REMARK  138  A    between atoms: _325  and  _328
REMARK  139  A    between atoms: _331  and  _333
REMARK  140  A    between atoms: _333  and  _334
REMARK  141  A    between atoms: _333  and  _336
REMARK  142  A    between atoms: _336  and  _337
REMARK  143  A    between atoms: _342  and  _344
REMARK  144  A    between atoms: _344  and  _345
REMARK  145  A    between atoms: _347  and  _349
REMARK  146  A    between atoms: _349  and  _350
REMARK  147  A    between atoms: _349  and  _352
REMARK  148  A    between atoms: _352  and  _353
REMARK  149  A    between atoms: _353  and  _354
REMARK  150  A    between atoms: _354  and  _355
REMARK  151  A    between atoms: _364  and  _366
REMARK  152  A    between atoms: _366  and  _367
REMARK  153  A    between atoms: _366  and  _369
REMARK  154  A    between atoms: _369  and  _370
REMARK  155  A    between atoms: _370  and  _371
REMARK  156  A    between atoms: _373  and  _375
REMARK  157  A    between atoms: _375  and  _376
REMARK  158  A    between atoms: _375  and  _378
REMARK  159  A    between atoms: _378  and  _379
REMARK  160  A    between atoms: _382  and  _384
REMARK  161  A    between atoms: _384  and  _385
REMARK  162  A    between atoms: _387  and  _389
REMARK  163  A    between atoms: _389  and  _390
REMARK  164  A    between atoms: _389  and  _392
REMARK  165  A    between atoms: _392  and  _393
REMARK  166  A    between atoms: _395  and  _397
REMARK  167  A    between atoms: _397  and  _398
REMARK  168  A    between atoms: _397  and  _400
REMARK  169  A    between atoms: _403  and  _405
REMARK  170  A    between atoms: _405  and  _406
REMARK  171  A    between atoms: _408  and  _410
REMARK  172  A    between atoms: _410  and  _411
REMARK  173  A    between atoms: _413  and  _415
REMARK  174  A    between atoms: _415  and  _416
REMARK  175  A    between atoms: _415  and  _418
REMARK  176  A    between atoms: _418  and  _419
REMARK  177  A    between atoms: _422  and  _424
REMARK  178  A    between atoms: _424  and  _425
REMARK  179  A    between atoms: _424  and  _427
REMARK  180  A    between atoms: _427  and  _428
REMARK  181  A    between atoms: _428  and  _429
REMARK  182  A    between atoms: _431  and  _433
REMARK  183  A    between atoms: _433  and  _434
REMARK  184  A    between atoms: _436  and  _438
REMARK  185  A    between atoms: _438  and  _439
REMARK  186  A    between atoms: _438  and  _441
REMARK  187  A    between atoms: _441  and  _442
REMARK  188  A    between atoms: _446  and  _447
REMARK  189  A    between atoms: _452  and  _454
REMARK  190  A    between atoms: _454  and  _455
REMARK  191  A    between atoms: _454  and  _457
REMARK  192  A    between atoms: _457  and  _458
REMARK  193  A    between atoms: _463  and  _465
REMARK  194  A    between atoms: _465  and  _466
REMARK  195  A    between atoms: _465  and  _468
REMARK  196  A    between atoms: _468  and  _469
REMARK  197  A    between atoms: _474  and  _475
REMARK  198  A    between atoms: _477  and  _479
REMARK  199  A    between atoms: _479  and  _480
REMARK  200  A    between atoms: _479  and  _482
REMARK  201  A    between atoms: _484  and  _486
REMARK  202  A    between atoms: _486  and  _487
REMARK  203  A    between atoms: _486  and  _489
REMARK  204  A    between atoms: _489  and  _490
REMARK  205  A    between atoms: _490  and  _491
REMARK  206  A    between atoms: _491  and  _492
REMARK  207  A    between atoms: _492  and  _493
REMARK  208  A    between atoms: _497  and  _499
REMARK  209  A    between atoms: _499  and  _500
REMARK  210  A    between atoms: _499  and  _502
REMARK  211  A    between atoms: _502  and  _503
REMARK  212  A    between atoms: _503  and  _504
REMARK  213  A    between atoms: _507  and  _509
REMARK  214  A    between atoms: _509  and  _510
REMARK  215  A    between atoms: _509  and  _512
REMARK  216  A    between atoms: _514  and  _516
REMARK  217  A    between atoms: _516  and  _517
REMARK  218  A    between atoms: _520  and  _521
REMARK  219  A    between atoms: _526  and  _528
REMARK  220  A    between atoms: _528  and  _529
REMARK  221  A    between atoms: _528  and  _531
REMARK  222  A    between atoms: _534  and  _536
REMARK  223  A    between atoms: _536  and  _537
REMARK  224  A    between atoms: _536  and  _539
REMARK  225  A    between atoms: _539  and  _540
REMARK  226  A    between atoms: _543  and  _545
REMARK  227  A    between atoms: _545  and  _546
REMARK  228  A    between atoms: _545  and  _548
REMARK  229  A    between atoms: _548  and  _549
REMARK  230  A    between atoms: _555  and  _557
REMARK  231  A    between atoms: _557  and  _558
REMARK  232  A    between atoms: _557  and  _560
REMARK  233  A    between atoms: _560  and  _561
REMARK  234  A    between atoms: _561  and  _562
REMARK  235  A    between atoms: _564  and  _566
REMARK  236  A    between atoms: _566  and  _567
REMARK  237  A    between atoms: _566  and  _569
REMARK  238  A    between atoms: _569  and  _570
REMARK  239  A    between atoms: _570  and  _571
REMARK  240  A    between atoms: _574  and  _576
REMARK  241  A    between atoms: _576  and  _577
REMARK  242  A    between atoms: _576  and  _579
REMARK  243  A    between atoms: _579  and  _580
REMARK  244  A    between atoms: _580  and  _581
REMARK  245  A    between atoms: _581  and  _582
REMARK  246  A    between atoms: _582  and  _583
REMARK  247  A    between atoms: _587  and  _589
REMARK  248  A    between atoms: _589  and  _590
REMARK  249  A    between atoms: _589  and  _592
REMARK  250  A    between atoms: _592  and  _593
REMARK  251  A    between atoms: _598  and  _599
REMARK  252  A    between atoms: _601  and  _603
REMARK  253  A    between atoms: _603  and  _604
REMARK  254  A    between atoms: _603  and  _606
REMARK  255  A    between atoms: _606  and  _607
REMARK  256  A    between atoms: _610  and  _612
REMARK  257  A    between atoms: _612  and  _613
REMARK  258  A    between atoms: _612  and  _615
REMARK  259  A    between atoms: _615  and  _616
REMARK  260  A    between atoms: _621  and  _623
REMARK  261  A    between atoms: _623  and  _624
REMARK  262  A    between atoms: _623  and  _626
REMARK  263  A    between atoms: _626  and  _627
REMARK  264  A    between atoms: _629  and  _631
REMARK  265  A    between atoms: _631  and  _632
REMARK  266  A    between atoms: _631  and  _634
REMARK  267  A    between atoms: _634  and  _635
REMARK  268  A    between atoms: _635  and  _636
REMARK  269  A    between atoms: _636  and  _637
REMARK  270  A    between atoms: _637  and  _638
REMARK  271  A    between atoms: _642  and  _644
REMARK  272  A    between atoms: _644  and  _645
REMARK  273  A    between atoms: _644  and  _647
REMARK  274  A    between atoms: _647  and  _648
REMARK  275  A    between atoms: _648  and  _649
REMARK  276  A    between atoms: _654  and  _656
REMARK  277  A    between atoms: _656  and  _657
REMARK  278  A    between atoms: _656  and  _659
REMARK  279  A    between atoms: _662  and  _664
REMARK  280  A    between atoms: _664  and  _665
REMARK  281  A    between atoms: _664  and  _667
REMARK  282  A    between atoms: _667  and  _668
REMARK  283  A    between atoms: _674  and  _676
REMARK  284  A    between atoms: _676  and  _677
REMARK  285  A    between atoms: _680  and  _682
REMARK  286  A    between atoms: _682  and  _683
REMARK  287  A    between atoms: _682  and  _685
REMARK  288  A    between atoms: _685  and  _686
REMARK  289  A    between atoms: _689  and  _691
REMARK  290  A    between atoms: _691  and  _692
REMARK  291  A    between atoms: _691  and  _694
REMARK  292  A    between atoms: _694  and  _695
REMARK  293  A    between atoms: _695  and  _696
REMARK  294  A    between atoms: _696  and  _697
REMARK  295  A    between atoms: _706  and  _708
REMARK  296  A    between atoms: _708  and  _709
REMARK  297  A    between atoms: _708  and  _711
REMARK  298  A    between atoms: _711  and  _712
REMARK  299  A    between atoms: _718  and  _720
REMARK  300  A    between atoms: _720  and  _721
REMARK  301  A    between atoms: _720  and  _723
REMARK  302  A    between atoms: _723  and  _724
REMARK  303  A    between atoms: _727  and  _729
REMARK  304  A    between atoms: _729  and  _730
REMARK  305  A    between atoms: _729  and  _732
REMARK  306  A    between atoms: _732  and  _733
REMARK  307  A    between atoms: _738  and  _739
REMARK  308  A    between atoms: _741  and  _743
REMARK  309  A    between atoms: _743  and  _744
REMARK  310  A    between atoms: _747  and  _749
REMARK  311  A    between atoms: _749  and  _750
REMARK  312  A    between atoms: _749  and  _752
REMARK  313  A    between atoms: _752  and  _753
REMARK  314  A    between atoms: _753  and  _754
REMARK  315  A    between atoms: _756  and  _758
REMARK  316  A    between atoms: _758  and  _759
REMARK  317  A    between atoms: _758  and  _761
REMARK  318  A    between atoms: _761  and  _762
REMARK  319  A    between atoms: _767  and  _769
REMARK  320  A    between atoms: _769  and  _770
REMARK  321  A    between atoms: _769  and  _772
REMARK  322  A    between atoms: _772  and  _773
REMARK  323  A    between atoms: _773  and  _774
REMARK  324  A    between atoms: _774  and  _775
REMARK  325  A    between atoms: _784  and  _786
REMARK  326  A    between atoms: _786  and  _787
REMARK  327  A    between atoms: _786  and  _789
REMARK  328  A    between atoms: _789  and  _790
REMARK  329  A    between atoms: _790  and  _791
REMARK  330  A    between atoms: _794  and  _796
REMARK  331  A    between atoms: _796  and  _797
REMARK  332  A    between atoms: _796  and  _799
REMARK  333  A    between atoms: _802  and  _804
REMARK  334  A    between atoms: _804  and  _805
REMARK  335  A    between atoms: _804  and  _807
REMARK  336  A    between atoms: _807  and  _808
REMARK                            x       y       z     vdW  Elec       q    Type
REMARK                         _______ _______ _______ _____ _____    ______ ____
ROOT
ATOM      1  CA  ARG A   1       7.425  -7.560   9.458  0.00  0.00    +0.145 C 
ENDROOT
BRANCH   1   2
ATOM      2  C   ARG A   1       8.664  -7.041  10.164  0.00  0.00    +0.238 C 
ATOM      3  O   ARG A   1       8.921  -7.390  11.318  0.00  0.00    -0.274 OA
ATOM      4  N   MET A   2       9.454  -6.218   9.474  0.00  0.00    -0.298 N 
ATOM      5  H   MET A   2       9.217  -5.961   8.494  0.00  0.00    +0.150 HD
BRANCH   4   6
ATOM      6  CA  MET A   2      10.650  -5.683  10.105  0.00  0.00    +0.138 C 
BRANCH   6   7
ATOM      7  C   MET A   2      10.253  -4.882  11.336  0.00  0.00    +0.227 C 
ATOM      8  O   MET A   2      10.877  -4.993  12.382  0.00  0.00    -0.286 OA
ENDBRANCH   6   7
BRANCH   6   9
ATOM      9  CB  MET A   2      11.416  -4.785   9.127  0.00  0.00    +0.039 C 
BRANCH   9  10
ATOM     10  CG  MET A   2      11.992  -5.586   7.959  0.00  0.00    +0.060 C 
BRANCH  10  11
ATOM     11  SD  MET A   2      13.068  -6.914   8.523  0.00  0.00    -0.139 S 
ATOM     12  CE  MET A   2      14.305  -5.977   9.412  0.00  0.00    +0.069 C 
ENDBRANCH  10  11
ENDBRANCH   9  10
ENDBRANCH   6   9
ENDBRANCH   4   6
ENDBRANCH   1   2
BRANCH   1  13
ATOM     13  N   ARG A   1       6.753  -6.487   8.722  0.00  0.00    -0.238 NA
ATOM     14  H   ARG A   1       6.579  -6.575   7.700  0.00  0.00    +0.142 HD
ENDBRANCH   1  13
BRANCH   1  15
ATOM     15  CB  ARG A   1       7.857  -8.661   8.495  0.00  0.00    +0.030 C 
BRANCH  15  16
ATOM     16  CG  ARG A   1       6.653  -9.402   7.920  0.00  0.00    +0.045 C 
BRANCH  16  17
ATOM     17  CD  ARG A   1       7.190 -10.575   7.090  0.00  0.00    +0.174 C 
BRANCH  17  18
ATOM     18  NE  ARG A   1       6.066 -11.214   6.412  0.00  0.00    -0.265 N 
ATOM     19  HE  ARG A   1       5.531 -11.934   6.938  0.00  0.00    +0.259 HD
ATOM     20  CZ  ARG A   1       5.679 -10.941   5.174  0.00  0.00    +0.342 C 
ATOM     21  NH2 ARG A   1       4.605 -11.553   4.701  0.00  0.00    -0.292 N 
ATOM     22 HH21 ARG A   1       4.087 -12.229   5.297  0.00  0.00    +0.255 HD
ATOM     23 HH22 ARG A   1       4.279 -11.358   3.733  0.00  0.00    +0.255 HD
ATOM     24  NH1 ARG A   1       6.346 -10.081   4.407  0.00  0.00    -0.292 N 
ATOM     25 HH11 ARG A   1       7.194  -9.604   4.776  0.00  0.00    +0.255 HD
ATOM     26 HH12 ARG A   1       6.019  -9.886   3.439  0.00  0.00    +0.255 HD
ENDBRANCH  17  18
ENDBRANCH  16  17
ENDBRANCH  15  16
ENDBRANCH   1  15
TORSDOF 11
REMARK  Name = ../refined-set-2016/1i5r/1i5r_pocket.pdb
REMARK  336 active torsions:
REMARK  status: ('A' for Active; 'I' for Inactive)
REMARK    1  A    between atoms: _1  and  _3
REMARK    2  A    between atoms: _3  and  _4
REMARK    3  A    between atoms: _3  and  _6
REMARK    4  A    between atoms: _6  and  _7
REMARK    5  A    between atoms: _10  and  _12
REMARK    6  A    between atoms: _12  and  _13
REMARK    7  A    between atoms: _12  and  _15
REMARK    8  A    between atoms: _15  and  _16
REMARK    9  A    between atoms: _19  and  _21
REMARK   10  A    between atoms: _21  and  _22
REMARK   11  A    between atoms: _24  and  _26
REMARK   12  A    between atoms: _26  and  _27
REMARK   13  A    between atoms: _26  and  _29
REMARK   14  A    between atoms: _31  and  _33
REMARK   15  A    between atoms: _33  and  _34
REMARK   16  A    between atoms: _33  and  _36
REMARK   17  A    between atoms: _36  and  _37
REMARK   18  A    between atoms: _39  and  _41
REMARK   19  A    between atoms: _41  and  _42
REMARK   20  A    between atoms: _41  and  _44
REMARK   21  A    between atoms: _44  and  _45
REMARK   22  A    between atoms: _47  and  _49
REMARK   23  A    between atoms: _49  and  _50
REMARK   24  A    between atoms: _52  and  _54
REMARK   25  A    between atoms: _54  and  _55
REMARK   26  A    between atoms: _54  and  _57
REMARK   27  A    between atoms: _57  and  _58
REMARK   28  A    between atoms: _61  and  _63
REMARK   29  A    between atoms: _63  and  _64
REMARK   30  A    between atoms: _66  and  _68
REMARK   31  A    between atoms: _68  and  _69
REMARK   32  A    between atoms: _68  and  _71
REMARK   33  A    between atoms: _71  and  _72
REMARK   34  A    between atoms: _75  and  _77
REMARK   35  A    between atoms: _77  and  _78
REMARK   36  A    between atoms: _77  and  _80
REMARK   37  A    between atoms: _80  and  _81
REMARK   38  A    between atoms: _86  and  _88
REMARK   39  A    between atoms: _88  and  _89
REMARK   40  A    between atoms: _88  and  _91
REMARK   41  A    between atoms: _91  and  _92
REMARK   42  A    between atoms: _95  and  _97
REMARK   43  A    between atoms: _97  and  _98
REMARK   44  A    between atoms: _97  and  _100
REMARK   45  A    between atoms: _100  and  _101
REMARK   46  A    between atoms: _104  and  _106
REMARK   47  A    between atoms: _106  and  _107
REMARK   48  A    between atoms: _106  and  _109
REMARK   49  A    between atoms: _109  and  _110
REMARK   50  A    between atoms: _110  and  _111
REMARK   51  A    between atoms: _111  and  _112
REMARK   52  A    between atoms: _121  and  _123
REMARK   53  A    between atoms: _123  and  _124
REMARK   54  A    between atoms: _123  and  _126
REMARK   55  A    between atoms: _126  and  _127
REMARK   56  A    between atoms: _130  and  _132
REMARK   57  A    between atoms: _132  and  _133
REMARK   58  A    between atoms: _132  and  _135
REMARK   59  A    between atoms: _135  and  _136
REMARK   60  A    between atoms: _139  and  _141
REMARK   61  A    between atoms: _141  and  _142
REMARK   62  A    between atoms: _141  and  _144
REMARK   63  A    between atoms: _144  and  _145
REMARK   64  A    between atoms: _145  and  _146
REMARK   65  A    between atoms: _146  and  _147
REMARK   66  A    between atoms: _156  and  _158
REMARK   67  A    between atoms: _158  and  _159
REMARK   68  A    between atoms: _158  and  _161
REMARK   69  A    between atoms: _161  and  _162
REMARK   70  A    between atoms: _165  and  _167
REMARK   71  A    between atoms: _167  and  _168
REMARK   72  A    between atoms: _167  and  _170
REMARK   73  A    between atoms: _170  and  _171
REMARK   74  A    between atoms: _171  and  _172
REMARK   75  A    between atoms: _177  and  _179
REMARK   76  A    between atoms: _179  and  _180
REMARK   77  A    between atoms: _179  and  _182
REMARK   78  A    between atoms: _182  and  _183
REMARK   79  A    between atoms: _186  and  _188
REMARK   80  A    between atoms: _188  and  _189
REMARK   81  A    between atoms: _188  and  _191
REMARK   82  A    between atoms: _191  and  _192
REMARK   83  A    between atoms: _195  and  _197
REMARK   84  A    between atoms: _197  and  _198
REMARK   85  A    between atoms: _197  and  _200
REMARK   86  A    between atoms: _203  and  _205
REMARK   87  A    between atoms: _205  and  _206
REMARK   88  A    between atoms: _205  and  _208
REMARK   89  A    between atoms: _208  and  _209
REMARK   90  A    between atoms: _209  and  _210
REMARK   91  A    between atoms: _210  and  _211
REMARK   92  A    between atoms: _220  and  _222
REMARK   93  A    between atoms: _222  and  _223
REMARK   94  A    between atoms: _222  and  _225
REMARK   95  A    between atoms: _225  and  _226
REMARK   96  A    between atoms: _229  and  _231
REMARK   97  A    between atoms: _231  and  _232
REMARK   98  A    between atoms: _231  and  _234
REMARK   99  A    between atoms: _234  and  _235
REMARK  100  A    between atoms: _237  and  _239
REMARK  101  A    between atoms: _239  and  _240
REMARK  102  A    between atoms: _239  and  _242
REMARK  103  A    between atoms: _245  and  _247
REMARK  104  A    between atoms: _247  and  _248
REMARK  105  A    between atoms: _247  and  _250
REMARK  106  A    between atoms: _252  and  _254
REMARK  107  A    between atoms: _254  and  _255
REMARK  108  A    between atoms: _254  and  _257
REMARK  109  A    between atoms: _257  and  _258
REMARK  110  A    between atoms: _263  and  _265
REMARK  111  A    between atoms: _265  and  _266
REMARK  112  A    between atoms: _269  and  _271
REMARK  113  A    between atoms: _271  and  _272
REMARK  114  A    between atoms: _274  and  _276
REMARK  115  A    between atoms: _276  and  _277
REMARK  116  A    between atoms: _276  and  _279
REMARK  117  A    between atoms: _279  and  _280
REMARK  118  A    between atoms: _283  and  _285
REMARK  119  A    between atoms: _285  and  _286
REMARK  120  A    between atoms: _288  and  _290
REMARK  121  A    between atoms: _290  and  _291
REMARK  122  A    between atoms: _290  and  _293
REMARK  123  A    between atoms: _293  and  _294
REMARK  124  A    between atoms: _297  and  _299
REMARK  125  A    between atoms: _299  and  _300
REMARK  126  A    between atoms: _299  and  _302
REMARK  127  A    between atoms: _302  and  _303
REMARK  128  A    between atoms: _306  and  _308
REMARK  129  A    between atoms: _308  and  _309
REMARK  130  A    between atoms: _308  and  _311
REMARK  131  A    between atoms: _311  and  _312
REMARK  132  A    between atoms: _314  and  _316
REMARK  133  A    between atoms: _316  and  _317
REMARK  134  A    between atoms: _316  and  _319
REMARK  135  A    between atoms: _319  and  _320
REMARK  136  A    between atoms: _323  and  _325
REMARK  137  A    between atoms: _325  and  _326
REMARK  138  A    between atoms: _325  and  _328
REMARK  139  A    between atoms: _331  and  _333
REMARK  140  A    between atoms: _333  and  _334
REMARK  141  A    between atoms: _333  and  _336
REMARK  142  A    between atoms: _336  and  _337
REMARK  143  A    between atoms: _342  and  _344
REMARK  144  A    between atoms: _344  and  _345
REMARK  145  A    between atoms: _347  and  _349
REMARK  146  A    between atoms: _349  and  _350
REMARK  147  A    between atoms: _349  and  _352
REMARK  148  A    between atoms: _352  and  _353
REMARK  149  A    between atoms: _353  and  _354
REMARK  150  A    between atoms: _354  and  _355
REMARK  151  A    between atoms: _364  and  _366
REMARK  152  A    between atoms: _366  and  _367
REMARK  153  A    between atoms: _366  and  _369
REMARK  154  A    between atoms: _369  and  _370
REMARK  155  A    between atoms: _370  and  _371
REMARK  156  A    between atoms: _373  and  _375
REMARK  157  A    between atoms: _375  and  _376
REMARK  158  A    between atoms: _375  and  _378
REMARK  159  A    between atoms: _378  and  _379
REMARK  160  A    between atoms: _382  and  _384
REMARK  161  A    between atoms: _384  and  _385
REMARK  162  A    between atoms: _387  and  _389
REMARK  163  A    between atoms: _389  and  _390
REMARK  164  A    between atoms: _389  and  _392
REMARK  165  A    between atoms: _392  and  _393
REMARK  166  A    between atoms: _395  and  _397
REMARK  167  A    between atoms: _397  and  _398
REMARK  168  A    between atoms: _397  and  _400
REMARK  169  A    between atoms: _403  and  _405
REMARK  170  A    between atoms: _405  and  _406
REMARK  171  A    between atoms: _408  and  _410
REMARK  172  A    between atoms: _410  and  _411
REMARK  173  A    between atoms: _413  and  _415
REMARK  174  A    between atoms: _415  and  _416
REMARK  175  A    between atoms: _415  and  _418
REMARK  176  A    between atoms: _418  and  _419
REMARK  177  A    between atoms: _422  and  _424
REMARK  178  A    between atoms: _424  and  _425
REMARK  179  A    between atoms: _424  and  _427
REMARK  180  A    between atoms: _427  and  _428
REMARK  181  A    between atoms: _428  and  _429
REMARK  182  A    between atoms: _431  and  _433
REMARK  183  A    between atoms: _433  and  _434
REMARK  184  A    between atoms: _436  and  _438
REMARK  185  A    between atoms: _438  and  _439
REMARK  186  A    between atoms: _438  and  _441
REMARK  187  A    between atoms: _441  and  _442
REMARK  188  A    between atoms: _446  and  _447
REMARK  189  A    between atoms: _452  and  _454
REMARK  190  A    between atoms: _454  and  _455
REMARK  191  A    between atoms: _454  and  _457
REMARK  192  A    between atoms: _457  and  _458
REMARK  193  A    between atoms: _463  and  _465
REMARK  194  A    between atoms: _465  and  _466
REMARK  195  A    between atoms: _465  and  _468
REMARK  196  A    between atoms: _468  and  _469
REMARK  197  A    between atoms: _474  and  _475
REMARK  198  A    between atoms: _477  and  _479
REMARK  199  A    between atoms: _479  and  _480
REMARK  200  A    between atoms: _479  and  _482
REMARK  201  A    between atoms: _484  and  _486
REMARK  202  A    between atoms: _486  and  _487
REMARK  203  A    between atoms: _486  and  _489
REMARK  204  A    between atoms: _489  and  _490
REMARK  205  A    between atoms: _490  and  _491
REMARK  206  A    between atoms: _491  and  _492
REMARK  207  A    between atoms: _492  and  _493
REMARK  208  A    between atoms: _497  and  _499
REMARK  209  A    between atoms: _499  and  _500
REMARK  210  A    between atoms: _499  and  _502
REMARK  211  A    between atoms: _502  and  _503
REMARK  212  A    between atoms: _503  and  _504
REMARK  213  A    between atoms: _507  and  _509
REMARK  214  A    between atoms: _509  and  _510
REMARK  215  A    between atoms: _509  and  _512
REMARK  216  A    between atoms: _514  and  _516
REMARK  217  A    between atoms: _516  and  _517
REMARK  218  A    between atoms: _520  and  _521
REMARK  219  A    between atoms: _526  and  _528
REMARK  220  A    between atoms: _528  and  _529
REMARK  221  A    between atoms: _528  and  _531
REMARK  222  A    between atoms: _534  and  _536
REMARK  223  A    between atoms: _536  and  _537
REMARK  224  A    between atoms: _536  and  _539
REMARK  225  A    between atoms: _539  and  _540
REMARK  226  A    between atoms: _543  and  _545
REMARK  227  A    between atoms: _545  and  _546
REMARK  228  A    between atoms: _545  and  _548
REMARK  229  A    between atoms: _548  and  _549
REMARK  230  A    between atoms: _555  and  _557
REMARK  231  A    between atoms: _557  and  _558
REMARK  232  A    between atoms: _557  and  _560
REMARK  233  A    between atoms: _560  and  _561
REMARK  234  A    between atoms: _561  and  _562
REMARK  235  A    between atoms: _564  and  _566
REMARK  236  A    between atoms: _566  and  _567
REMARK  237  A    between atoms: _566  and  _569
REMARK  238  A    between atoms: _569  and  _570
REMARK  239  A    between atoms: _570  and  _571
REMARK  240  A    between atoms: _574  and  _576
REMARK  241  A    between atoms: _576  and  _577
REMARK  242  A    between atoms: _576  and  _579
REMARK  243  A    between atoms: _579  and  _580
REMARK  244  A    between atoms: _580  and  _581
REMARK  245  A    between atoms: _581  and  _582
REMARK  246  A    between atoms: _582  and  _583
REMARK  247  A    between atoms: _587  and  _589
REMARK  248  A    between atoms: _589  and  _590
REMARK  249  A    between atoms: _589  and  _592
REMARK  250  A    between atoms: _592  and  _593
REMARK  251  A    between atoms: _598  and  _599
REMARK  252  A    between atoms: _601  and  _603
REMARK  253  A    between atoms: _603  and  _604
REMARK  254  A    between atoms: _603  and  _606
REMARK  255  A    between atoms: _606  and  _607
REMARK  256  A    between atoms: _610  and  _612
REMARK  257  A    between atoms: _612  and  _613
REMARK  258  A    between atoms: _612  and  _615
REMARK  259  A    between atoms: _615  and  _616
REMARK  260  A    between atoms: _621  and  _623
REMARK  261  A    between atoms: _623  and  _624
REMARK  262  A    between atoms: _623  and  _626
REMARK  263  A    between atoms: _626  and  _627
REMARK  264  A    between atoms: _629  and  _631
REMARK  265  A    between atoms: _631  and  _632
REMARK  266  A    between atoms: _631  and  _634
REMARK  267  A    between atoms: _634  and  _635
REMARK  268  A    between atoms: _635  and  _636
REMARK  269  A    between atoms: _636  and  _637
REMARK  270  A    between atoms: _637  and  _638
REMARK  271  A    between atoms: _642  and  _644
REMARK  272  A    between atoms: _644  and  _645
REMARK  273  A    between atoms: _644  and  _647
REMARK  274  A    between atoms: _647  and  _648
REMARK  275  A    between atoms: _648  and  _649
REMARK  276  A    between atoms: _654  and  _656
REMARK  277  A    between atoms: _656  and  _657
REMARK  278  A    between atoms: _656  and  _659
REMARK  279  A    between atoms: _662  and  _664
REMARK  280  A    between atoms: _664  and  _665
REMARK  281  A    between atoms: _664  and  _667
REMARK  282  A    between atoms: _667  and  _668
REMARK  283  A    between atoms: _674  and  _676
REMARK  284  A    between atoms: _676  and  _677
REMARK  285  A    between atoms: _680  and  _682
REMARK  286  A    between atoms: _682  and  _683
REMARK  287  A    between atoms: _682  and  _685
REMARK  288  A    between atoms: _685  and  _686
REMARK  289  A    between atoms: _689  and  _691
REMARK  290  A    between atoms: _691  and  _692
REMARK  291  A    between atoms: _691  and  _694
REMARK  292  A    between atoms: _694  and  _695
REMARK  293  A    between atoms: _695  and  _696
REMARK  294  A    between atoms: _696  and  _697
REMARK  295  A    between atoms: _706  and  _708
REMARK  296  A    between atoms: _708  and  _709
REMARK  297  A    between atoms: _708  and  _711
REMARK  298  A    between atoms: _711  and  _712
REMARK  299  A    between atoms: _718  and  _720
REMARK  300  A    between atoms: _720  and  _721
REMARK  301  A    between atoms: _720  and  _723
REMARK  302  A    between atoms: _723  and  _724
REMARK  303  A    between atoms: _727  and  _729
REMARK  304  A    between atoms: _729  and  _730
REMARK  305  A    between atoms: _729  and  _732
REMARK  306  A    between atoms: _732  and  _733
REMARK  307  A    between atoms: _738  and  _739
REMARK  308  A    between atoms: _741  and  _743
REMARK  309  A    between atoms: _743  and  _744
REMARK  310  A    between atoms: _747  and  _749
REMARK  311  A    between atoms: _749  and  _750
REMARK  312  A    between atoms: _749  and  _752
REMARK  313  A    between atoms: _752  and  _753
REMARK  314  A    between atoms: _753  and  _754
REMARK  315  A    between atoms: _756  and  _758
REMARK  316  A    between atoms: _758  and  _759
REMARK  317  A    between atoms: _758  and  _761
REMARK  318  A    between atoms: _761  and  _762
REMARK  319  A    between atoms: _767  and  _769
REMARK  320  A    between atoms: _769  and  _770
REMARK  321  A    between atoms: _769  and  _772
REMARK  322  A    between atoms: _772  and  _773
REMARK  323  A    between atoms: _773  and  _774
REMARK  324  A    between atoms: _774  and  _775
REMARK  325  A    between atoms: _784  and  _786
REMARK  326  A    between atoms: _786  and  _787
REMARK  327  A    between atoms: _786  and  _789
REMARK  328  A    between atoms: _789  and  _790
REMARK  329  A    between atoms: _790  and  _791
REMARK  330  A    between atoms: _794  and  _796
REMARK  331  A    between atoms: _796  and  _797
REMARK  332  A    between atoms: _796  and  _799
REMARK  333  A    between atoms: _802  and  _804
REMARK  334  A    between atoms: _804  and  _805
REMARK  335  A    between atoms: _804  and  _807
REMARK  336  A    between atoms: _807  and  _808
REMARK                            x       y       z     vdW  Elec       q    Type
REMARK                         _______ _______ _______ _____ _____    ______ ____
ROOT
ATOM      1  C   GLY A   6       4.558   8.281  -2.383  0.00  0.00    +0.243 C 
ATOM      2  O   GLY A   6       3.674   8.267  -1.536  0.00  0.00    -0.273 OA
ATOM      3  N   LEU A   7       4.914   9.356  -3.070  0.00  0.00    -0.297 N 
ATOM      4  H   LEU A   7       5.639   9.261  -3.810  0.00  0.00    +0.150 HD
ENDROOT
BRANCH   3   5
ATOM      5  CA  LEU A   7       4.331  10.656  -2.828  0.00  0.00    +0.149 C 
BRANCH   5   6
ATOM      6  C   LEU A   7       3.485  11.153  -3.980  0.00  0.00    +0.241 C 
ATOM      7  O   LEU A   7       2.690  12.054  -3.787  0.00  0.00    -0.273 OA
ATOM      8  N   MET A   8       3.682  10.529  -5.128  0.00  0.00    -0.297 N 
ATOM      9  H   MET A   8       4.383   9.765  -5.200  0.00  0.00    +0.150 HD
BRANCH   8  10
ATOM     10  CA  MET A   8       2.899  10.930  -6.293  0.00  0.00    +0.149 C 
BRANCH  10  11
ATOM     11  C   MET A   8       2.871   9.745  -7.241  0.00  0.00    +0.241 C 
ATOM     12  O   MET A   8       3.832   8.983  -7.277  0.00  0.00    -0.273 OA
ATOM     13  N   GLY A   9       1.734   9.576  -7.882  0.00  0.00    -0.295 N 
ATOM     14  H   GLY A   9       0.979  10.285  -7.788  0.00  0.00    +0.150 HD
BRANCH  13  15
ATOM     15  CA  GLY A   9       1.523   8.407  -8.721  0.00  0.00    +0.176 C 
BRANCH  15  16
ATOM     16  C   GLY A   9       2.238   8.576 -10.047  0.00  0.00    +0.243 C 
ATOM     17  N   LEU A  10       2.752   7.451 -10.503  0.00  0.00    -0.297 N 
ATOM     18  H   LEU A  10       2.639   6.575  -9.954  0.00  0.00    +0.150 HD
ATOM     19  O   GLY A   9       2.319   9.653 -10.602  0.00  0.00    -0.273 OA
BRANCH  17  20
ATOM     20  CA  LEU A  10       3.482   7.420 -11.776  0.00  0.00    +0.149 C 
BRANCH  20  21
ATOM     21  C   LEU A  10       2.815   6.356 -12.625  0.00  0.00    +0.244 C 
ATOM     22  O   LEU A  10       2.626   5.234 -12.182  0.00  0.00    -0.273 OA
ATOM     23  N   PRO A  11       2.476   6.735 -13.842  0.00  0.00    -0.273 N 
ATOM     24  CD  PRO A  11       2.781   8.024 -14.503  0.00  0.00    +0.094 C 
ATOM     25  CG  PRO A  11       2.641   7.652 -15.966  0.00  0.00    +0.024 C 
ATOM     26  CB  PRO A  11       1.575   6.599 -16.001  0.00  0.00    +0.030 C 
ATOM     27  CA  PRO A  11       1.822   5.796 -14.737  0.00  0.00    +0.140 C 
BRANCH  27  28
ATOM     28  C   PRO A  11       2.766   4.635 -14.915  0.00  0.00    +0.227 C 
ATOM     29  O   PRO A  11       3.987   4.762 -14.897  0.00  0.00    -0.286 OA
ENDBRANCH  27  28
ENDBRANCH  20  21
BRANCH  20  30
ATOM     30  CB  LEU A  10       4.933   7.094 -11.514  0.00  0.00    +0.029 C 
BRANCH  30  31
ATOM     31  CG  LEU A  10       5.709   8.246 -10.851  0.00  0.00    +0.002 C 
ATOM     32  CD2 LEU A  10       7.119   7.773 -10.554  0.00  0.00    +0.000 C 
ATOM     33  CD1 LEU A  10       5.713   9.477 -11.744  0.00  0.00    +0.000 C 
ENDBRANCH  30  31
ENDBRANCH  20  30
ENDBRANCH  17  20
ENDBRANCH  15  16
ENDBRANCH  13  15
ENDBRANCH  10  11
BRANCH  10  34
ATOM     34  CB  MET A   8       3.543  12.154  -6.908  0.00  0.00    +0.041 C 
BRANCH  34  35
ATOM     35  CG  MET A   8       4.913  11.813  -7.489  0.00  0.00    +0.060 C 
BRANCH  35  36
ATOM     36  SD  MET A   8       5.675  13.352  -8.010  0.00  0.00    -0.139 S 
ATOM     37  CE  MET A   8       6.777  12.740  -9.284  0.00  0.00    +0.069 C 
ENDBRANCH  35  36
ENDBRANCH  34  35
ENDBRANCH  10  34
ENDBRANCH   8  10
ENDBRANCH   5   6
BRANCH   5  38
ATOM     38  CB  LEU A   7       5.474  11.645  -2.606  0.00  0.00    +0.029 C 
BRANCH  38  39
ATOM     39  CG  LEU A   7       6.473  11.250  -1.509  0.00  0.00    +0.002 C 
ATOM     40  CD2 LEU A   7       5.733  11.121  -0.189  0.00  0.00    +0.000 C 
ATOM     41  CD1 LEU A   7       7.560  12.306  -1.435  0.00  0.00    +0.000 C 
ENDBRANCH  38  39
ENDBRANCH   5  38
ENDBRANCH   3   5
BRANCH   1  42
ATOM     42  CA  GLY A   6       5.321   7.004  -2.739  0.00  0.00    +0.176 C 
BRANCH  42  44
ATOM     43  C   GLY A   5       5.785   7.020  -5.134  0.00  0.00    +0.243 C 
ATOM     44  N   GLY A   6       6.161   7.261  -3.885  0.00  0.00    -0.295 N 
ATOM     45  H   GLY A   6       7.110   7.655  -3.723  0.00  0.00    +0.150 HD
ATOM     46  O   GLY A   5       4.743   6.430  -5.378  0.00  0.00    -0.273 OA
BRANCH  43  47
ATOM     47  CA  GLY A   5       6.720   7.469  -6.258  0.00  0.00    +0.176 C 
BRANCH  47  50
ATOM     48  C   VAL A   4       7.724   9.458  -5.258  0.00  0.00    +0.241 C 
ATOM     49  O   VAL A   4       6.647  10.032  -5.170  0.00  0.00    -0.273 OA
ATOM     50  N   GLY A   5       7.849   8.233  -5.756  0.00  0.00    -0.295 N 
ATOM     51  H   GLY A   5       8.795   7.803  -5.788  0.00  0.00    +0.150 HD
BRANCH  48  52
ATOM     52  CA  VAL A   4       8.960  10.135  -4.682  0.00  0.00    +0.149 C 
BRANCH  52  55
ATOM     53  C   SER A   3       9.469   8.253  -3.277  0.00  0.00    +0.243 C 
ATOM     54  O   SER A   3       8.423   8.319  -2.655  0.00  0.00    -0.273 OA
ATOM     55  N   VAL A   4       9.845   9.048  -4.264  0.00  0.00    -0.297 N 
ATOM     56  H   VAL A   4      10.759   8.902  -4.738  0.00  0.00    +0.150 HD
BRANCH  53  57
ATOM     57  CA  SER A   3      10.381   7.064  -3.070  0.00  0.00    +0.178 C 
BRANCH  57  60
ATOM     58  C   GLY A   2      11.186   6.161  -1.022  0.00  0.00    +0.243 C 
ATOM     59  O   GLY A   2      12.309   6.031  -1.493  0.00  0.00    -0.273 OA
ATOM     60  N   SER A   3      10.148   6.652  -1.690  0.00  0.00    -0.295 N 
ATOM     61  H   SER A   3       9.210   6.739  -1.249  0.00  0.00    +0.150 HD
BRANCH  58  62
ATOM     62  CA  GLY A   2      10.796   5.765   0.406  0.00  0.00    +0.176 C 
BRANCH  62  65
ATOM     63  C   THR A   1      12.230   4.050   1.286  0.00  0.00    +0.241 C 
ATOM     64  O   THR A   1      11.431   3.143   1.099  0.00  0.00    -0.274 OA
ATOM     65  N   GLY A   2      12.029   5.333   1.048  0.00  0.00    -0.295 N 
ATOM     66  H   GLY A   2      12.749   6.033   1.318  0.00  0.00    +0.150 HD
BRANCH  63  67
ATOM     67  CA  THR A   1      13.579   3.779   1.942  0.00  0.00    +0.172 C 
BRANCH  67  68
ATOM     68  N   THR A   1      13.312   3.231   3.263  0.00  0.00    -0.236 NA
ATOM     69  H   THR A   1      13.483   2.228   3.477  0.00  0.00    +0.142 HD
ENDBRANCH  67  68
BRANCH  67  70
ATOM     70  CB  THR A   1      14.361   2.785   1.081  0.00  0.00    +0.135 C 
ATOM     71  CG2 THR A   1      14.739   3.472  -0.219  0.00  0.00    +0.034 C 
BRANCH  70  72
ATOM     72  OG1 THR A   1      15.544   2.458   1.816  0.00  0.00    -0.383 OA
ATOM     73  HG1 THR A   1      16.086   1.813   1.296  0.00  0.00    +0.210 HD
ENDBRANCH  70  72
ENDBRANCH  67  70
ENDBRANCH  63  67
ENDBRANCH  62  65
ENDBRANCH  58  62
ENDBRANCH  57  60
BRANCH  57  74
ATOM     74  CB  SER A   3       9.904   5.932  -3.985  0.00  0.00    +0.166 C 
BRANCH  74  75
ATOM     75  OG  SER A   3       9.832   6.373  -5.328  0.00  0.00    -0.380 OA
ATOM     76  H   SER A   3      10.728   6.670  -5.625  0.00  0.00    +0.211 HD
ENDBRANCH  74  75
ENDBRANCH  57  74
ENDBRANCH  53  57
ENDBRANCH  52  55
BRANCH  52  77
ATOM     77  CB  VAL A   4       9.678  10.968  -5.753  0.00  0.00    +0.027 C 
ATOM     78  CG2 VAL A   4      10.728  11.790  -5.012  0.00  0.00    +0.002 C 
ATOM     79  CG1 VAL A   4       8.719  11.836  -6.549  0.00  0.00    +0.002 C 
ENDBRANCH  52  77
ENDBRANCH  48  52
ENDBRANCH  47  50
ENDBRANCH  43  47
ENDBRANCH  42  44
ENDBRANCH   1  42
TORSDOF 33
REMARK  Name = ../refined-set-2016/1i5r/1i5r_pocket.pdb
REMARK  336 active torsions:
REMARK  status: ('A' for Active; 'I' for Inactive)
REMARK    1  A    between atoms: _1  and  _3
REMARK    2  A    between atoms: _3  and  _4
REMARK    3  A    between atoms: _3  and  _6
REMARK    4  A    between atoms: _6  and  _7
REMARK    5  A    between atoms: _10  and  _12
REMARK    6  A    between atoms: _12  and  _13
REMARK    7  A    between atoms: _12  and  _15
REMARK    8  A    between atoms: _15  and  _16
REMARK    9  A    between atoms: _19  and  _21
REMARK   10  A    between atoms: _21  and  _22
REMARK   11  A    between atoms: _24  and  _26
REMARK   12  A    between atoms: _26  and  _27
REMARK   13  A    between atoms: _26  and  _29
REMARK   14  A    between atoms: _31  and  _33
REMARK   15  A    between atoms: _33  and  _34
REMARK   16  A    between atoms: _33  and  _36
REMARK   17  A    between atoms: _36  and  _37
REMARK   18  A    between atoms: _39  and  _41
REMARK   19  A    between atoms: _41  and  _42
REMARK   20  A    between atoms: _41  and  _44
REMARK   21  A    between atoms: _44  and  _45
REMARK   22  A    between atoms: _47  and  _49
REMARK   23  A    between atoms: _49  and  _50
REMARK   24  A    between atoms: _52  and  _54
REMARK   25  A    between atoms: _54  and  _55
REMARK   26  A    between atoms: _54  and  _57
REMARK   27  A    between atoms: _57  and  _58
REMARK   28  A    between atoms: _61  and  _63
REMARK   29  A    between atoms: _63  and  _64
REMARK   30  A    between atoms: _66  and  _68
REMARK   31  A    between atoms: _68  and  _69
REMARK   32  A    between atoms: _68  and  _71
REMARK   33  A    between atoms: _71  and  _72
REMARK   34  A    between atoms: _75  and  _77
REMARK   35  A    between atoms: _77  and  _78
REMARK   36  A    between atoms: _77  and  _80
REMARK   37  A    between atoms: _80  and  _81
REMARK   38  A    between atoms: _86  and  _88
REMARK   39  A    between atoms: _88  and  _89
REMARK   40  A    between atoms: _88  and  _91
REMARK   41  A    between atoms: _91  and  _92
REMARK   42  A    between atoms: _95  and  _97
REMARK   43  A    between atoms: _97  and  _98
REMARK   44  A    between atoms: _97  and  _100
REMARK   45  A    between atoms: _100  and  _101
REMARK   46  A    between atoms: _104  and  _106
REMARK   47  A    between atoms: _106  and  _107
REMARK   48  A    between atoms: _106  and  _109
REMARK   49  A    between atoms: _109  and  _110
REMARK   50  A    between atoms: _110  and  _111
REMARK   51  A    between atoms: _111  and  _112
REMARK   52  A    between atoms: _121  and  _123
REMARK   53  A    between atoms: _123  and  _124
REMARK   54  A    between atoms: _123  and  _126
REMARK   55  A    between atoms: _126  and  _127
REMARK   56  A    between atoms: _130  and  _132
REMARK   57  A    between atoms: _132  and  _133
REMARK   58  A    between atoms: _132  and  _135
REMARK   59  A    between atoms: _135  and  _136
REMARK   60  A    between atoms: _139  and  _141
REMARK   61  A    between atoms: _141  and  _142
REMARK   62  A    between atoms: _141  and  _144
REMARK   63  A    between atoms: _144  and  _145
REMARK   64  A    between atoms: _145  and  _146
REMARK   65  A    between atoms: _146  and  _147
REMARK   66  A    between atoms: _156  and  _158
REMARK   67  A    between atoms: _158  and  _159
REMARK   68  A    between atoms: _158  and  _161
REMARK   69  A    between atoms: _161  and  _162
REMARK   70  A    between atoms: _165  and  _167
REMARK   71  A    between atoms: _167  and  _168
REMARK   72  A    between atoms: _167  and  _170
REMARK   73  A    between atoms: _170  and  _171
REMARK   74  A    between atoms: _171  and  _172
REMARK   75  A    between atoms: _177  and  _179
REMARK   76  A    between atoms: _179  and  _180
REMARK   77  A    between atoms: _179  and  _182
REMARK   78  A    between atoms: _182  and  _183
REMARK   79  A    between atoms: _186  and  _188
REMARK   80  A    between atoms: _188  and  _189
REMARK   81  A    between atoms: _188  and  _191
REMARK   82  A    between atoms: _191  and  _192
REMARK   83  A    between atoms: _195  and  _197
REMARK   84  A    between atoms: _197  and  _198
REMARK   85  A    between atoms: _197  and  _200
REMARK   86  A    between atoms: _203  and  _205
REMARK   87  A    between atoms: _205  and  _206
REMARK   88  A    between atoms: _205  and  _208
REMARK   89  A    between atoms: _208  and  _209
REMARK   90  A    between atoms: _209  and  _210
REMARK   91  A    between atoms: _210  and  _211
REMARK   92  A    between atoms: _220  and  _222
REMARK   93  A    between atoms: _222  and  _223
REMARK   94  A    between atoms: _222  and  _225
REMARK   95  A    between atoms: _225  and  _226
REMARK   96  A    between atoms: _229  and  _231
REMARK   97  A    between atoms: _231  and  _232
REMARK   98  A    between atoms: _231  and  _234
REMARK   99  A    between atoms: _234  and  _235
REMARK  100  A    between atoms: _237  and  _239
REMARK  101  A    between atoms: _239  and  _240
REMARK  102  A    between atoms: _239  and  _242
REMARK  103  A    between atoms: _245  and  _247
REMARK  104  A    between atoms: _247  and  _248
REMARK  105  A    between atoms: _247  and  _250
REMARK  106  A    between atoms: _252  and  _254
REMARK  107  A    between atoms: _254  and  _255
REMARK  108  A    between atoms: _254  and  _257
REMARK  109  A    between atoms: _257  and  _258
REMARK  110  A    between atoms: _263  and  _265
REMARK  111  A    between atoms: _265  and  _266
REMARK  112  A    between atoms: _269  and  _271
REMARK  113  A    between atoms: _271  and  _272
REMARK  114  A    between atoms: _274  and  _276
REMARK  115  A    between atoms: _276  and  _277
REMARK  116  A    between atoms: _276  and  _279
REMARK  117  A    between atoms: _279  and  _280
REMARK  118  A    between atoms: _283  and  _285
REMARK  119  A    between atoms: _285  and  _286
REMARK  120  A    between atoms: _288  and  _290
REMARK  121  A    between atoms: _290  and  _291
REMARK  122  A    between atoms: _290  and  _293
REMARK  123  A    between atoms: _293  and  _294
REMARK  124  A    between atoms: _297  and  _299
REMARK  125  A    between atoms: _299  and  _300
REMARK  126  A    between atoms: _299  and  _302
REMARK  127  A    between atoms: _302  and  _303
REMARK  128  A    between atoms: _306  and  _308
REMARK  129  A    between atoms: _308  and  _309
REMARK  130  A    between atoms: _308  and  _311
REMARK  131  A    between atoms: _311  and  _312
REMARK  132  A    between atoms: _314  and  _316
REMARK  133  A    between atoms: _316  and  _317
REMARK  134  A    between atoms: _316  and  _319
REMARK  135  A    between atoms: _319  and  _320
REMARK  136  A    between atoms: _323  and  _325
REMARK  137  A    between atoms: _325  and  _326
REMARK  138  A    between atoms: _325  and  _328
REMARK  139  A    between atoms: _331  and  _333
REMARK  140  A    between atoms: _333  and  _334
REMARK  141  A    between atoms: _333  and  _336
REMARK  142  A    between atoms: _336  and  _337
REMARK  143  A    between atoms: _342  and  _344
REMARK  144  A    between atoms: _344  and  _345
REMARK  145  A    between atoms: _347  and  _349
REMARK  146  A    between atoms: _349  and  _350
REMARK  147  A    between atoms: _349  and  _352
REMARK  148  A    between atoms: _352  and  _353
REMARK  149  A    between atoms: _353  and  _354
REMARK  150  A    between atoms: _354  and  _355
REMARK  151  A    between atoms: _364  and  _366
REMARK  152  A    between atoms: _366  and  _367
REMARK  153  A    between atoms: _366  and  _369
REMARK  154  A    between atoms: _369  and  _370
REMARK  155  A    between atoms: _370  and  _371
REMARK  156  A    between atoms: _373  and  _375
REMARK  157  A    between atoms: _375  and  _376
REMARK  158  A    between atoms: _375  and  _378
REMARK  159  A    between atoms: _378  and  _379
REMARK  160  A    between atoms: _382  and  _384
REMARK  161  A    between atoms: _384  and  _385
REMARK  162  A    between atoms: _387  and  _389
REMARK  163  A    between atoms: _389  and  _390
REMARK  164  A    between atoms: _389  and  _392
REMARK  165  A    between atoms: _392  and  _393
REMARK  166  A    between atoms: _395  and  _397
REMARK  167  A    between atoms: _397  and  _398
REMARK  168  A    between atoms: _397  and  _400
REMARK  169  A    between atoms: _403  and  _405
REMARK  170  A    between atoms: _405  and  _406
REMARK  171  A    between atoms: _408  and  _410
REMARK  172  A    between atoms: _410  and  _411
REMARK  173  A    between atoms: _413  and  _415
REMARK  174  A    between atoms: _415  and  _416
REMARK  175  A    between atoms: _415  and  _418
REMARK  176  A    between atoms: _418  and  _419
REMARK  177  A    between atoms: _422  and  _424
REMARK  178  A    between atoms: _424  and  _425
REMARK  179  A    between atoms: _424  and  _427
REMARK  180  A    between atoms: _427  and  _428
REMARK  181  A    between atoms: _428  and  _429
REMARK  182  A    between atoms: _431  and  _433
REMARK  183  A    between atoms: _433  and  _434
REMARK  184  A    between atoms: _436  and  _438
REMARK  185  A    between atoms: _438  and  _439
REMARK  186  A    between atoms: _438  and  _441
REMARK  187  A    between atoms: _441  and  _442
REMARK  188  A    between atoms: _446  and  _447
REMARK  189  A    between atoms: _452  and  _454
REMARK  190  A    between atoms: _454  and  _455
REMARK  191  A    between atoms: _454  and  _457
REMARK  192  A    between atoms: _457  and  _458
REMARK  193  A    between atoms: _463  and  _465
REMARK  194  A    between atoms: _465  and  _466
REMARK  195  A    between atoms: _465  and  _468
REMARK  196  A    between atoms: _468  and  _469
REMARK  197  A    between atoms: _474  and  _475
REMARK  198  A    between atoms: _477  and  _479
REMARK  199  A    between atoms: _479  and  _480
REMARK  200  A    between atoms: _479  and  _482
REMARK  201  A    between atoms: _484  and  _486
REMARK  202  A    between atoms: _486  and  _487
REMARK  203  A    between atoms: _486  and  _489
REMARK  204  A    between atoms: _489  and  _490
REMARK  205  A    between atoms: _490  and  _491
REMARK  206  A    between atoms: _491  and  _492
REMARK  207  A    between atoms: _492  and  _493
REMARK  208  A    between atoms: _497  and  _499
REMARK  209  A    between atoms: _499  and  _500
REMARK  210  A    between atoms: _499  and  _502
REMARK  211  A    between atoms: _502  and  _503
REMARK  212  A    between atoms: _503  and  _504
REMARK  213  A    between atoms: _507  and  _509
REMARK  214  A    between atoms: _509  and  _510
REMARK  215  A    between atoms: _509  and  _512
REMARK  216  A    between atoms: _514  and  _516
REMARK  217  A    between atoms: _516  and  _517
REMARK  218  A    between atoms: _520  and  _521
REMARK  219  A    between atoms: _526  and  _528
REMARK  220  A    between atoms: _528  and  _529
REMARK  221  A    between atoms: _528  and  _531
REMARK  222  A    between atoms: _534  and  _536
REMARK  223  A    between atoms: _536  and  _537
REMARK  224  A    between atoms: _536  and  _539
REMARK  225  A    between atoms: _539  and  _540
REMARK  226  A    between atoms: _543  and  _545
REMARK  227  A    between atoms: _545  and  _546
REMARK  228  A    between atoms: _545  and  _548
REMARK  229  A    between atoms: _548  and  _549
REMARK  230  A    between atoms: _555  and  _557
REMARK  231  A    between atoms: _557  and  _558
REMARK  232  A    between atoms: _557  and  _560
REMARK  233  A    between atoms: _560  and  _561
REMARK  234  A    between atoms: _561  and  _562
REMARK  235  A    between atoms: _564  and  _566
REMARK  236  A    between atoms: _566  and  _567
REMARK  237  A    between atoms: _566  and  _569
REMARK  238  A    between atoms: _569  and  _570
REMARK  239  A    between atoms: _570  and  _571
REMARK  240  A    between atoms: _574  and  _576
REMARK  241  A    between atoms: _576  and  _577
REMARK  242  A    between atoms: _576  and  _579
REMARK  243  A    between atoms: _579  and  _580
REMARK  244  A    between atoms: _580  and  _581
REMARK  245  A    between atoms: _581  and  _582
REMARK  246  A    between atoms: _582  and  _583
REMARK  247  A    between atoms: _587  and  _589
REMARK  248  A    between atoms: _589  and  _590
REMARK  249  A    between atoms: _589  and  _592
REMARK  250  A    between atoms: _592  and  _593
REMARK  251  A    between atoms: _598  and  _599
REMARK  252  A    between atoms: _601  and  _603
REMARK  253  A    between atoms: _603  and  _604
REMARK  254  A    between atoms: _603  and  _606
REMARK  255  A    between atoms: _606  and  _607
REMARK  256  A    between atoms: _610  and  _612
REMARK  257  A    between atoms: _612  and  _613
REMARK  258  A    between atoms: _612  and  _615
REMARK  259  A    between atoms: _615  and  _616
REMARK  260  A    between atoms: _621  and  _623
REMARK  261  A    between atoms: _623  and  _624
REMARK  262  A    between atoms: _623  and  _626
REMARK  263  A    between atoms: _626  and  _627
REMARK  264  A    between atoms: _629  and  _631
REMARK  265  A    between atoms: _631  and  _632
REMARK  266  A    between atoms: _631  and  _634
REMARK  267  A    between atoms: _634  and  _635
REMARK  268  A    between atoms: _635  and  _636
REMARK  269  A    between atoms: _636  and  _637
REMARK  270  A    between atoms: _637  and  _638
REMARK  271  A    between atoms: _642  and  _644
REMARK  272  A    between atoms: _644  and  _645
REMARK  273  A    between atoms: _644  and  _647
REMARK  274  A    between atoms: _647  and  _648
REMARK  275  A    between atoms: _648  and  _649
REMARK  276  A    between atoms: _654  and  _656
REMARK  277  A    between atoms: _656  and  _657
REMARK  278  A    between atoms: _656  and  _659
REMARK  279  A    between atoms: _662  and  _664
REMARK  280  A    between atoms: _664  and  _665
REMARK  281  A    between atoms: _664  and  _667
REMARK  282  A    between atoms: _667  and  _668
REMARK  283  A    between atoms: _674  and  _676
REMARK  284  A    between atoms: _676  and  _677
REMARK  285  A    between atoms: _680  and  _682
REMARK  286  A    between atoms: _682  and  _683
REMARK  287  A    between atoms: _682  and  _685
REMARK  288  A    between atoms: _685  and  _686
REMARK  289  A    between atoms: _689  and  _691
REMARK  290  A    between atoms: _691  and  _692
REMARK  291  A    between atoms: _691  and  _694
REMARK  292  A    between atoms: _694  and  _695
REMARK  293  A    between atoms: _695  and  _696
REMARK  294  A    between atoms: _696  and  _697
REMARK  295  A    between atoms: _706  and  _708
REMARK  296  A    between atoms: _708  and  _709
REMARK  297  A    between atoms: _708  and  _711
REMARK  298  A    between atoms: _711  and  _712
REMARK  299  A    between atoms: _718  and  _720
REMARK  300  A    between atoms: _720  and  _721
REMARK  301  A    between atoms: _720  and  _723
REMARK  302  A    between atoms: _723  and  _724
REMARK  303  A    between atoms: _727  and  _729
REMARK  304  A    between atoms: _729  and  _730
REMARK  305  A    between atoms: _729  and  _732
REMARK  306  A    between atoms: _732  and  _733
REMARK  307  A    between atoms: _738  and  _739
REMARK  308  A    between atoms: _741  and  _743
REMARK  309  A    between atoms: _743  and  _744
REMARK  310  A    between atoms: _747  and  _749
REMARK  311  A    between atoms: _749  and  _750
REMARK  312  A    between atoms: _749  and  _752
REMARK  313  A    between atoms: _752  and  _753
REMARK  314  A    between atoms: _753  and  _754
REMARK  315  A    between atoms: _756  and  _758
REMARK  316  A    between atoms: _758  and  _759
REMARK  317  A    between atoms: _758  and  _761
REMARK  318  A    between atoms: _761  and  _762
REMARK  319  A    between atoms: _767  and  _769
REMARK  320  A    between atoms: _769  and  _770
REMARK  321  A    between atoms: _769  and  _772
REMARK  322  A    between atoms: _772  and  _773
REMARK  323  A    between atoms: _773  and  _774
REMARK  324  A    between atoms: _774  and  _775
REMARK  325  A    between atoms: _784  and  _786
REMARK  326  A    between atoms: _786  and  _787
REMARK  327  A    between atoms: _786  and  _789
REMARK  328  A    between atoms: _789  and  _790
REMARK  329  A    between atoms: _790  and  _791
REMARK  330  A    between atoms: _794  and  _796
REMARK  331  A    between atoms: _796  and  _797
REMARK  332  A    between atoms: _796  and  _799
REMARK  333  A    between atoms: _802  and  _804
REMARK  334  A    between atoms: _804  and  _805
REMARK  335  A    between atoms: _804  and  _807
REMARK  336  A    between atoms: _807  and  _808
REMARK                            x       y       z     vdW  Elec       q    Type
REMARK                         _______ _______ _______ _____ _____    ______ ____
ROOT
ATOM      1  CB  ASN A   1       5.090   3.252 -11.198  0.00  0.00    +0.110 C 
ENDROOT
BRANCH   1   2
ATOM      2  CG  ASN A   1       6.339   3.227 -12.055  0.00  0.00    +0.221 C 
ATOM      3  OD1 ASN A   1       7.317   2.582 -11.685  0.00  0.00    -0.275 OA
ATOM      4  ND2 ASN A   1       6.233   3.906 -13.179  0.00  0.00    -0.329 N 
ATOM      5 HD21 ASN A   1       5.355   4.420 -13.395  0.00  0.00    +0.145 HD
ATOM      6 HD22 ASN A   1       7.027   3.928 -13.850  0.00  0.00    +0.145 HD
ENDBRANCH   1   2
BRANCH   1   7
ATOM      7  CA  ASN A   1       4.159   2.124 -11.636  0.00  0.00    +0.142 C 
BRANCH   7   8
ATOM      8  N   ASN A   1       3.529   2.476 -12.899  0.00  0.00    -0.239 NA
ATOM      9  H   ASN A   1       2.940   3.332 -12.944  0.00  0.00    +0.142 HD
ENDBRANCH   7   8
BRANCH   7  10
ATOM     10  C   ASN A   1       3.045   2.058 -10.598  0.00  0.00    +0.225 C 
ATOM     11  O   ASN A   1       3.294   2.263  -9.418  0.00  0.00    -0.287 OA
ENDBRANCH   7  10
ENDBRANCH   1   7
TORSDOF 4
REMARK  Name = ../refined-set-2016/1i5r/1i5r_pocket.pdb
REMARK  336 active torsions:
REMARK  status: ('A' for Active; 'I' for Inactive)
REMARK    1  A    between atoms: _1  and  _3
REMARK    2  A    between atoms: _3  and  _4
REMARK    3  A    between atoms: _3  and  _6
REMARK    4  A    between atoms: _6  and  _7
REMARK    5  A    between atoms: _10  and  _12
REMARK    6  A    between atoms: _12  and  _13
REMARK    7  A    between atoms: _12  and  _15
REMARK    8  A    between atoms: _15  and  _16
REMARK    9  A    between atoms: _19  and  _21
REMARK   10  A    between atoms: _21  and  _22
REMARK   11  A    between atoms: _24  and  _26
REMARK   12  A    between atoms: _26  and  _27
REMARK   13  A    between atoms: _26  and  _29
REMARK   14  A    between atoms: _31  and  _33
REMARK   15  A    between atoms: _33  and  _34
REMARK   16  A    between atoms: _33  and  _36
REMARK   17  A    between atoms: _36  and  _37
REMARK   18  A    between atoms: _39  and  _41
REMARK   19  A    between atoms: _41  and  _42
REMARK   20  A    between atoms: _41  and  _44
REMARK   21  A    between atoms: _44  and  _45
REMARK   22  A    between atoms: _47  and  _49
REMARK   23  A    between atoms: _49  and  _50
REMARK   24  A    between atoms: _52  and  _54
REMARK   25  A    between atoms: _54  and  _55
REMARK   26  A    between atoms: _54  and  _57
REMARK   27  A    between atoms: _57  and  _58
REMARK   28  A    between atoms: _61  and  _63
REMARK   29  A    between atoms: _63  and  _64
REMARK   30  A    between atoms: _66  and  _68
REMARK   31  A    between atoms: _68  and  _69
REMARK   32  A    between atoms: _68  and  _71
REMARK   33  A    between atoms: _71  and  _72
REMARK   34  A    between atoms: _75  and  _77
REMARK   35  A    between atoms: _77  and  _78
REMARK   36  A    between atoms: _77  and  _80
REMARK   37  A    between atoms: _80  and  _81
REMARK   38  A    between atoms: _86  and  _88
REMARK   39  A    between atoms: _88  and  _89
REMARK   40  A    between atoms: _88  and  _91
REMARK   41  A    between atoms: _91  and  _92
REMARK   42  A    between atoms: _95  and  _97
REMARK   43  A    between atoms: _97  and  _98
REMARK   44  A    between atoms: _97  and  _100
REMARK   45  A    between atoms: _100  and  _101
REMARK   46  A    between atoms: _104  and  _106
REMARK   47  A    between atoms: _106  and  _107
REMARK   48  A    between atoms: _106  and  _109
REMARK   49  A    between atoms: _109  and  _110
REMARK   50  A    between atoms: _110  and  _111
REMARK   51  A    between atoms: _111  and  _112
REMARK   52  A    between atoms: _121  and  _123
REMARK   53  A    between atoms: _123  and  _124
REMARK   54  A    between atoms: _123  and  _126
REMARK   55  A    between atoms: _126  and  _127
REMARK   56  A    between atoms: _130  and  _132
REMARK   57  A    between atoms: _132  and  _133
REMARK   58  A    between atoms: _132  and  _135
REMARK   59  A    between atoms: _135  and  _136
REMARK   60  A    between atoms: _139  and  _141
REMARK   61  A    between atoms: _141  and  _142
REMARK   62  A    between atoms: _141  and  _144
REMARK   63  A    between atoms: _144  and  _145
REMARK   64  A    between atoms: _145  and  _146
REMARK   65  A    between atoms: _146  and  _147
REMARK   66  A    between atoms: _156  and  _158
REMARK   67  A    between atoms: _158  and  _159
REMARK   68  A    between atoms: _158  and  _161
REMARK   69  A    between atoms: _161  and  _162
REMARK   70  A    between atoms: _165  and  _167
REMARK   71  A    between atoms: _167  and  _168
REMARK   72  A    between atoms: _167  and  _170
REMARK   73  A    between atoms: _170  and  _171
REMARK   74  A    between atoms: _171  and  _172
REMARK   75  A    between atoms: _177  and  _179
REMARK   76  A    between atoms: _179  and  _180
REMARK   77  A    between atoms: _179  and  _182
REMARK   78  A    between atoms: _182  and  _183
REMARK   79  A    between atoms: _186  and  _188
REMARK   80  A    between atoms: _188  and  _189
REMARK   81  A    between atoms: _188  and  _191
REMARK   82  A    between atoms: _191  and  _192
REMARK   83  A    between atoms: _195  and  _197
REMARK   84  A    between atoms: _197  and  _198
REMARK   85  A    between atoms: _197  and  _200
REMARK   86  A    between atoms: _203  and  _205
REMARK   87  A    between atoms: _205  and  _206
REMARK   88  A    between atoms: _205  and  _208
REMARK   89  A    between atoms: _208  and  _209
REMARK   90  A    between atoms: _209  and  _210
REMARK   91  A    between atoms: _210  and  _211
REMARK   92  A    between atoms: _220  and  _222
REMARK   93  A    between atoms: _222  and  _223
REMARK   94  A    between atoms: _222  and  _225
REMARK   95  A    between atoms: _225  and  _226
REMARK   96  A    between atoms: _229  and  _231
REMARK   97  A    between atoms: _231  and  _232
REMARK   98  A    between atoms: _231  and  _234
REMARK   99  A    between atoms: _234  and  _235
REMARK  100  A    between atoms: _237  and  _239
REMARK  101  A    between atoms: _239  and  _240
REMARK  102  A    between atoms: _239  and  _242
REMARK  103  A    between atoms: _245  and  _247
REMARK  104  A    between atoms: _247  and  _248
REMARK  105  A    between atoms: _247  and  _250
REMARK  106  A    between atoms: _252  and  _254
REMARK  107  A    between atoms: _254  and  _255
REMARK  108  A    between atoms: _254  and  _257
REMARK  109  A    between atoms: _257  and  _258
REMARK  110  A    between atoms: _263  and  _265
REMARK  111  A    between atoms: _265  and  _266
REMARK  112  A    between atoms: _269  and  _271
REMARK  113  A    between atoms: _271  and  _272
REMARK  114  A    between atoms: _274  and  _276
REMARK  115  A    between atoms: _276  and  _277
REMARK  116  A    between atoms: _276  and  _279
REMARK  117  A    between atoms: _279  and  _280
REMARK  118  A    between atoms: _283  and  _285
REMARK  119  A    between atoms: _285  and  _286
REMARK  120  A    between atoms: _288  and  _290
REMARK  121  A    between atoms: _290  and  _291
REMARK  122  A    between atoms: _290  and  _293
REMARK  123  A    between atoms: _293  and  _294
REMARK  124  A    between atoms: _297  and  _299
REMARK  125  A    between atoms: _299  and  _300
REMARK  126  A    between atoms: _299  and  _302
REMARK  127  A    between atoms: _302  and  _303
REMARK  128  A    between atoms: _306  and  _308
REMARK  129  A    between atoms: _308  and  _309
REMARK  130  A    between atoms: _308  and  _311
REMARK  131  A    between atoms: _311  and  _312
REMARK  132  A    between atoms: _314  and  _316
REMARK  133  A    between atoms: _316  and  _317
REMARK  134  A    between atoms: _316  and  _319
REMARK  135  A    between atoms: _319  and  _320
REMARK  136  A    between atoms: _323  and  _325
REMARK  137  A    between atoms: _325  and  _326
REMARK  138  A    between atoms: _325  and  _328
REMARK  139  A    between atoms: _331  and  _333
REMARK  140  A    between atoms: _333  and  _334
REMARK  141  A    between atoms: _333  and  _336
REMARK  142  A    between atoms: _336  and  _337
REMARK  143  A    between atoms: _342  and  _344
REMARK  144  A    between atoms: _344  and  _345
REMARK  145  A    between atoms: _347  and  _349
REMARK  146  A    between atoms: _349  and  _350
REMARK  147  A    between atoms: _349  and  _352
REMARK  148  A    between atoms: _352  and  _353
REMARK  149  A    between atoms: _353  and  _354
REMARK  150  A    between atoms: _354  and  _355
REMARK  151  A    between atoms: _364  and  _366
REMARK  152  A    between atoms: _366  and  _367
REMARK  153  A    between atoms: _366  and  _369
REMARK  154  A    between atoms: _369  and  _370
REMARK  155  A    between atoms: _370  and  _371
REMARK  156  A    between atoms: _373  and  _375
REMARK  157  A    between atoms: _375  and  _376
REMARK  158  A    between atoms: _375  and  _378
REMARK  159  A    between atoms: _378  and  _379
REMARK  160  A    between atoms: _382  and  _384
REMARK  161  A    between atoms: _384  and  _385
REMARK  162  A    between atoms: _387  and  _389
REMARK  163  A    between atoms: _389  and  _390
REMARK  164  A    between atoms: _389  and  _392
REMARK  165  A    between atoms: _392  and  _393
REMARK  166  A    between atoms: _395  and  _397
REMARK  167  A    between atoms: _397  and  _398
REMARK  168  A    between atoms: _397  and  _400
REMARK  169  A    between atoms: _403  and  _405
REMARK  170  A    between atoms: _405  and  _406
REMARK  171  A    between atoms: _408  and  _410
REMARK  172  A    between atoms: _410  and  _411
REMARK  173  A    between atoms: _413  and  _415
REMARK  174  A    between atoms: _415  and  _416
REMARK  175  A    between atoms: _415  and  _418
REMARK  176  A    between atoms: _418  and  _419
REMARK  177  A    between atoms: _422  and  _424
REMARK  178  A    between atoms: _424  and  _425
REMARK  179  A    between atoms: _424  and  _427
REMARK  180  A    between atoms: _427  and  _428
REMARK  181  A    between atoms: _428  and  _429
REMARK  182  A    between atoms: _431  and  _433
REMARK  183  A    between atoms: _433  and  _434
REMARK  184  A    between atoms: _436  and  _438
REMARK  185  A    between atoms: _438  and  _439
REMARK  186  A    between atoms: _438  and  _441
REMARK  187  A    between atoms: _441  and  _442
REMARK  188  A    between atoms: _446  and  _447
REMARK  189  A    between atoms: _452  and  _454
REMARK  190  A    between atoms: _454  and  _455
REMARK  191  A    between atoms: _454  and  _457
REMARK  192  A    between atoms: _457  and  _458
REMARK  193  A    between atoms: _463  and  _465
REMARK  194  A    between atoms: _465  and  _466
REMARK  195  A    between atoms: _465  and  _468
REMARK  196  A    between atoms: _468  and  _469
REMARK  197  A    between atoms: _474  and  _475
REMARK  198  A    between atoms: _477  and  _479
REMARK  199  A    between atoms: _479  and  _480
REMARK  200  A    between atoms: _479  and  _482
REMARK  201  A    between atoms: _484  and  _486
REMARK  202  A    between atoms: _486  and  _487
REMARK  203  A    between atoms: _486  and  _489
REMARK  204  A    between atoms: _489  and  _490
REMARK  205  A    between atoms: _490  and  _491
REMARK  206  A    between atoms: _491  and  _492
REMARK  207  A    between atoms: _492  and  _493
REMARK  208  A    between atoms: _497  and  _499
REMARK  209  A    between atoms: _499  and  _500
REMARK  210  A    between atoms: _499  and  _502
REMARK  211  A    between atoms: _502  and  _503
REMARK  212  A    between atoms: _503  and  _504
REMARK  213  A    between atoms: _507  and  _509
REMARK  214  A    between atoms: _509  and  _510
REMARK  215  A    between atoms: _509  and  _512
REMARK  216  A    between atoms: _514  and  _516
REMARK  217  A    between atoms: _516  and  _517
REMARK  218  A    between atoms: _520  and  _521
REMARK  219  A    between atoms: _526  and  _528
REMARK  220  A    between atoms: _528  and  _529
REMARK  221  A    between atoms: _528  and  _531
REMARK  222  A    between atoms: _534  and  _536
REMARK  223  A    between atoms: _536  and  _537
REMARK  224  A    between atoms: _536  and  _539
REMARK  225  A    between atoms: _539  and  _540
REMARK  226  A    between atoms: _543  and  _545
REMARK  227  A    between atoms: _545  and  _546
REMARK  228  A    between atoms: _545  and  _548
REMARK  229  A    between atoms: _548  and  _549
REMARK  230  A    between atoms: _555  and  _557
REMARK  231  A    between atoms: _557  and  _558
REMARK  232  A    between atoms: _557  and  _560
REMARK  233  A    between atoms: _560  and  _561
REMARK  234  A    between atoms: _561  and  _562
REMARK  235  A    between atoms: _564  and  _566
REMARK  236  A    between atoms: _566  and  _567
REMARK  237  A    between atoms: _566  and  _569
REMARK  238  A    between atoms: _569  and  _570
REMARK  239  A    between atoms: _570  and  _571
REMARK  240  A    between atoms: _574  and  _576
REMARK  241  A    between atoms: _576  and  _577
REMARK  242  A    between atoms: _576  and  _579
REMARK  243  A    between atoms: _579  and  _580
REMARK  244  A    between atoms: _580  and  _581
REMARK  245  A    between atoms: _581  and  _582
REMARK  246  A    between atoms: _582  and  _583
REMARK  247  A    between atoms: _587  and  _589
REMARK  248  A    between atoms: _589  and  _590
REMARK  249  A    between atoms: _589  and  _592
REMARK  250  A    between atoms: _592  and  _593
REMARK  251  A    between atoms: _598  and  _599
REMARK  252  A    between atoms: _601  and  _603
REMARK  253  A    between atoms: _603  and  _604
REMARK  254  A    between atoms: _603  and  _606
REMARK  255  A    between atoms: _606  and  _607
REMARK  256  A    between atoms: _610  and  _612
REMARK  257  A    between atoms: _612  and  _613
REMARK  258  A    between atoms: _612  and  _615
REMARK  259  A    between atoms: _615  and  _616
REMARK  260  A    between atoms: _621  and  _623
REMARK  261  A    between atoms: _623  and  _624
REMARK  262  A    between atoms: _623  and  _626
REMARK  263  A    between atoms: _626  and  _627
REMARK  264  A    between atoms: _629  and  _631
REMARK  265  A    between atoms: _631  and  _632
REMARK  266  A    between atoms: _631  and  _634
REMARK  267  A    between atoms: _634  and  _635
REMARK  268  A    between atoms: _635  and  _636
REMARK  269  A    between atoms: _636  and  _637
REMARK  270  A    between atoms: _637  and  _638
REMARK  271  A    between atoms: _642  and  _644
REMARK  272  A    between atoms: _644  and  _645
REMARK  273  A    between atoms: _644  and  _647
REMARK  274  A    between atoms: _647  and  _648
REMARK  275  A    between atoms: _648  and  _649
REMARK  276  A    between atoms: _654  and  _656
REMARK  277  A    between atoms: _656  and  _657
REMARK  278  A    between atoms: _656  and  _659
REMARK  279  A    between atoms: _662  and  _664
REMARK  280  A    between atoms: _664  and  _665
REMARK  281  A    between atoms: _664  and  _667
REMARK  282  A    between atoms: _667  and  _668
REMARK  283  A    between atoms: _674  and  _676
REMARK  284  A    between atoms: _676  and  _677
REMARK  285  A    between atoms: _680  and  _682
REMARK  286  A    between atoms: _682  and  _683
REMARK  287  A    between atoms: _682  and  _685
REMARK  288  A    between atoms: _685  and  _686
REMARK  289  A    between atoms: _689  and  _691
REMARK  290  A    between atoms: _691  and  _692
REMARK  291  A    between atoms: _691  and  _694
REMARK  292  A    between atoms: _694  and  _695
REMARK  293  A    between atoms: _695  and  _696
REMARK  294  A    between atoms: _696  and  _697
REMARK  295  A    between atoms: _706  and  _708
REMARK  296  A    between atoms: _708  and  _709
REMARK  297  A    between atoms: _708  and  _711
REMARK  298  A    between atoms: _711  and  _712
REMARK  299  A    between atoms: _718  and  _720
REMARK  300  A    between atoms: _720  and  _721
REMARK  301  A    between atoms: _720  and  _723
REMARK  302  A    between atoms: _723  and  _724
REMARK  303  A    between atoms: _727  and  _729
REMARK  304  A    between atoms: _729  and  _730
REMARK  305  A    between atoms: _729  and  _732
REMARK  306  A    between atoms: _732  and  _733
REMARK  307  A    between atoms: _738  and  _739
REMARK  308  A    between atoms: _741  and  _743
REMARK  309  A    between atoms: _743  and  _744
REMARK  310  A    between atoms: _747  and  _749
REMARK  311  A    between atoms: _749  and  _750
REMARK  312  A    between atoms: _749  and  _752
REMARK  313  A    between atoms: _752  and  _753
REMARK  314  A    between atoms: _753  and  _754
REMARK  315  A    between atoms: _756  and  _758
REMARK  316  A    between atoms: _758  and  _759
REMARK  317  A    between atoms: _758  and  _761
REMARK  318  A    between atoms: _761  and  _762
REMARK  319  A    between atoms: _767  and  _769
REMARK  320  A    between atoms: _769  and  _770
REMARK  321  A    between atoms: _769  and  _772
REMARK  322  A    between atoms: _772  and  _773
REMARK  323  A    between atoms: _773  and  _774
REMARK  324  A    between atoms: _774  and  _775
REMARK  325  A    between atoms: _784  and  _786
REMARK  326  A    between atoms: _786  and  _787
REMARK  327  A    between atoms: _786  and  _789
REMARK  328  A    between atoms: _789  and  _790
REMARK  329  A    between atoms: _790  and  _791
REMARK  330  A    between atoms: _794  and  _796
REMARK  331  A    between atoms: _796  and  _797
REMARK  332  A    between atoms: _796  and  _799
REMARK  333  A    between atoms: _802  and  _804
REMARK  334  A    between atoms: _804  and  _805
REMARK  335  A    between atoms: _804  and  _807
REMARK  336  A    between atoms: _807  and  _808
REMARK                            x       y       z     vdW  Elec       q    Type
REMARK                         _______ _______ _______ _____ _____    ______ ____
ROOT
ATOM      1  CA  TYR A   1       5.092   0.165  -7.167  0.00  0.00    +0.149 C 
ENDROOT
BRANCH   1   2
ATOM      2  C   TYR A   1       4.710   1.367  -6.317  0.00  0.00    +0.239 C 
ATOM      3  O   TYR A   1       4.992   1.418  -5.133  0.00  0.00    -0.274 OA
ATOM      4  N   CYS A   2       4.024   2.324  -6.970  0.00  0.00    -0.297 N 
ATOM      5  H   CYS A   2       3.796   2.220  -7.979  0.00  0.00    +0.150 HD
BRANCH   4   6
ATOM      6  CA  CYS A   2       3.607   3.512  -6.227  0.00  0.00    +0.149 C 
BRANCH   6   7
ATOM      7  C   CYS A   2       2.657   3.130  -5.106  0.00  0.00    +0.228 C 
ATOM      8  O   CYS A   2       2.769   3.625  -4.006  0.00  0.00    -0.286 OA
ENDBRANCH   6   7
BRANCH   6   9
ATOM      9  CB  CYS A   2       2.873   4.476  -7.155  0.00  0.00    +0.096 C 
ATOM     10  SG  CYS A   2       4.067   5.202  -8.321  0.00  0.00    -0.080 S 
ENDBRANCH   6   9
ENDBRANCH   4   6
ENDBRANCH   1   2
BRANCH   1  11
ATOM     11  N   TYR A   1       3.895  -0.312  -7.851  0.00  0.00    -0.238 NA
ATOM     12  H   TYR A   1       3.860  -0.355  -8.890  0.00  0.00    +0.142 HD
ENDBRANCH   1  11
BRANCH   1  13
ATOM     13  CB  TYR A   1       6.146   0.540  -8.207  0.00  0.00    +0.053 C 
BRANCH  13  14
ATOM     14  CG  TYR A   1       7.313   1.217  -7.516  0.00  0.00    -0.020 A 
ATOM     15  CD2 TYR A   1       8.235   0.482  -6.791  0.00  0.00    -0.001 A 
ATOM     16  CE2 TYR A   1       9.294   1.135  -6.175  0.00  0.00    +0.036 A 
ATOM     17  CZ  TYR A   1       9.403   2.498  -6.288  0.00  0.00    +0.134 A 
ATOM     18  CE1 TYR A   1       8.483   3.239  -6.995  0.00  0.00    +0.036 A 
ATOM     19  CD1 TYR A   1       7.440   2.592  -7.623  0.00  0.00    -0.001 A 
BRANCH  17  20
ATOM     20  OH  TYR A   1      10.416   3.205  -5.677  0.00  0.00    -0.506 OA
ATOM     21  HH  TYR A   1      11.015   2.577  -5.201  0.00  0.00    +0.292 HD
ENDBRANCH  17  20
ENDBRANCH  13  14
ENDBRANCH   1  13
TORSDOF 8
REMARK  Name = ../refined-set-2016/1i5r/1i5r_pocket.pdb
REMARK  336 active torsions:
REMARK  status: ('A' for Active; 'I' for Inactive)
REMARK    1  A    between atoms: _1  and  _3
REMARK    2  A    between atoms: _3  and  _4
REMARK    3  A    between atoms: _3  and  _6
REMARK    4  A    between atoms: _6  and  _7
REMARK    5  A    between atoms: _10  and  _12
REMARK    6  A    between atoms: _12  and  _13
REMARK    7  A    between atoms: _12  and  _15
REMARK    8  A    between atoms: _15  and  _16
REMARK    9  A    between atoms: _19  and  _21
REMARK   10  A    between atoms: _21  and  _22
REMARK   11  A    between atoms: _24  and  _26
REMARK   12  A    between atoms: _26  and  _27
REMARK   13  A    between atoms: _26  and  _29
REMARK   14  A    between atoms: _31  and  _33
REMARK   15  A    between atoms: _33  and  _34
REMARK   16  A    between atoms: _33  and  _36
REMARK   17  A    between atoms: _36  and  _37
REMARK   18  A    between atoms: _39  and  _41
REMARK   19  A    between atoms: _41  and  _42
REMARK   20  A    between atoms: _41  and  _44
REMARK   21  A    between atoms: _44  and  _45
REMARK   22  A    between atoms: _47  and  _49
REMARK   23  A    between atoms: _49  and  _50
REMARK   24  A    between atoms: _52  and  _54
REMARK   25  A    between atoms: _54  and  _55
REMARK   26  A    between atoms: _54  and  _57
REMARK   27  A    between atoms: _57  and  _58
REMARK   28  A    between atoms: _61  and  _63
REMARK   29  A    between atoms: _63  and  _64
REMARK   30  A    between atoms: _66  and  _68
REMARK   31  A    between atoms: _68  and  _69
REMARK   32  A    between atoms: _68  and  _71
REMARK   33  A    between atoms: _71  and  _72
REMARK   34  A    between atoms: _75  and  _77
REMARK   35  A    between atoms: _77  and  _78
REMARK   36  A    between atoms: _77  and  _80
REMARK   37  A    between atoms: _80  and  _81
REMARK   38  A    between atoms: _86  and  _88
REMARK   39  A    between atoms: _88  and  _89
REMARK   40  A    between atoms: _88  and  _91
REMARK   41  A    between atoms: _91  and  _92
REMARK   42  A    between atoms: _95  and  _97
REMARK   43  A    between atoms: _97  and  _98
REMARK   44  A    between atoms: _97  and  _100
REMARK   45  A    between atoms: _100  and  _101
REMARK   46  A    between atoms: _104  and  _106
REMARK   47  A    between atoms: _106  and  _107
REMARK   48  A    between atoms: _106  and  _109
REMARK   49  A    between atoms: _109  and  _110
REMARK   50  A    between atoms: _110  and  _111
REMARK   51  A    between atoms: _111  and  _112
REMARK   52  A    between atoms: _121  and  _123
REMARK   53  A    between atoms: _123  and  _124
REMARK   54  A    between atoms: _123  and  _126
REMARK   55  A    between atoms: _126  and  _127
REMARK   56  A    between atoms: _130  and  _132
REMARK   57  A    between atoms: _132  and  _133
REMARK   58  A    between atoms: _132  and  _135
REMARK   59  A    between atoms: _135  and  _136
REMARK   60  A    between atoms: _139  and  _141
REMARK   61  A    between atoms: _141  and  _142
REMARK   62  A    between atoms: _141  and  _144
REMARK   63  A    between atoms: _144  and  _145
REMARK   64  A    between atoms: _145  and  _146
REMARK   65  A    between atoms: _146  and  _147
REMARK   66  A    between atoms: _156  and  _158
REMARK   67  A    between atoms: _158  and  _159
REMARK   68  A    between atoms: _158  and  _161
REMARK   69  A    between atoms: _161  and  _162
REMARK   70  A    between atoms: _165  and  _167
REMARK   71  A    between atoms: _167  and  _168
REMARK   72  A    between atoms: _167  and  _170
REMARK   73  A    between atoms: _170  and  _171
REMARK   74  A    between atoms: _171  and  _172
REMARK   75  A    between atoms: _177  and  _179
REMARK   76  A    between atoms: _179  and  _180
REMARK   77  A    between atoms: _179  and  _182
REMARK   78  A    between atoms: _182  and  _183
REMARK   79  A    between atoms: _186  and  _188
REMARK   80  A    between atoms: _188  and  _189
REMARK   81  A    between atoms: _188  and  _191
REMARK   82  A    between atoms: _191  and  _192
REMARK   83  A    between atoms: _195  and  _197
REMARK   84  A    between atoms: _197  and  _198
REMARK   85  A    between atoms: _197  and  _200
REMARK   86  A    between atoms: _203  and  _205
REMARK   87  A    between atoms: _205  and  _206
REMARK   88  A    between atoms: _205  and  _208
REMARK   89  A    between atoms: _208  and  _209
REMARK   90  A    between atoms: _209  and  _210
REMARK   91  A    between atoms: _210  and  _211
REMARK   92  A    between atoms: _220  and  _222
REMARK   93  A    between atoms: _222  and  _223
REMARK   94  A    between atoms: _222  and  _225
REMARK   95  A    between atoms: _225  and  _226
REMARK   96  A    between atoms: _229  and  _231
REMARK   97  A    between atoms: _231  and  _232
REMARK   98  A    between atoms: _231  and  _234
REMARK   99  A    between atoms: _234  and  _235
REMARK  100  A    between atoms: _237  and  _239
REMARK  101  A    between atoms: _239  and  _240
REMARK  102  A    between atoms: _239  and  _242
REMARK  103  A    between atoms: _245  and  _247
REMARK  104  A    between atoms: _247  and  _248
REMARK  105  A    between atoms: _247  and  _250
REMARK  106  A    between atoms: _252  and  _254
REMARK  107  A    between atoms: _254  and  _255
REMARK  108  A    between atoms: _254  and  _257
REMARK  109  A    between atoms: _257  and  _258
REMARK  110  A    between atoms: _263  and  _265
REMARK  111  A    between atoms: _265  and  _266
REMARK  112  A    between atoms: _269  and  _271
REMARK  113  A    between atoms: _271  and  _272
REMARK  114  A    between atoms: _274  and  _276
REMARK  115  A    between atoms: _276  and  _277
REMARK  116  A    between atoms: _276  and  _279
REMARK  117  A    between atoms: _279  and  _280
REMARK  118  A    between atoms: _283  and  _285
REMARK  119  A    between atoms: _285  and  _286
REMARK  120  A    between atoms: _288  and  _290
REMARK  121  A    between atoms: _290  and  _291
REMARK  122  A    between atoms: _290  and  _293
REMARK  123  A    between atoms: _293  and  _294
REMARK  124  A    between atoms: _297  and  _299
REMARK  125  A    between atoms: _299  and  _300
REMARK  126  A    between atoms: _299  and  _302
REMARK  127  A    between atoms: _302  and  _303
REMARK  128  A    between atoms: _306  and  _308
REMARK  129  A    between atoms: _308  and  _309
REMARK  130  A    between atoms: _308  and  _311
REMARK  131  A    between atoms: _311  and  _312
REMARK  132  A    between atoms: _314  and  _316
REMARK  133  A    between atoms: _316  and  _317
REMARK  134  A    between atoms: _316  and  _319
REMARK  135  A    between atoms: _319  and  _320
REMARK  136  A    between atoms: _323  and  _325
REMARK  137  A    between atoms: _325  and  _326
REMARK  138  A    between atoms: _325  and  _328
REMARK  139  A    between atoms: _331  and  _333
REMARK  140  A    between atoms: _333  and  _334
REMARK  141  A    between atoms: _333  and  _336
REMARK  142  A    between atoms: _336  and  _337
REMARK  143  A    between atoms: _342  and  _344
REMARK  144  A    between atoms: _344  and  _345
REMARK  145  A    between atoms: _347  and  _349
REMARK  146  A    between atoms: _349  and  _350
REMARK  147  A    between atoms: _349  and  _352
REMARK  148  A    between atoms: _352  and  _353
REMARK  149  A    between atoms: _353  and  _354
REMARK  150  A    between atoms: _354  and  _355
REMARK  151  A    between atoms: _364  and  _366
REMARK  152  A    between atoms: _366  and  _367
REMARK  153  A    between atoms: _366  and  _369
REMARK  154  A    between atoms: _369  and  _370
REMARK  155  A    between atoms: _370  and  _371
REMARK  156  A    between atoms: _373  and  _375
REMARK  157  A    between atoms: _375  and  _376
REMARK  158  A    between atoms: _375  and  _378
REMARK  159  A    between atoms: _378  and  _379
REMARK  160  A    between atoms: _382  and  _384
REMARK  161  A    between atoms: _384  and  _385
REMARK  162  A    between atoms: _387  and  _389
REMARK  163  A    between atoms: _389  and  _390
REMARK  164  A    between atoms: _389  and  _392
REMARK  165  A    between atoms: _392  and  _393
REMARK  166  A    between atoms: _395  and  _397
REMARK  167  A    between atoms: _397  and  _398
REMARK  168  A    between atoms: _397  and  _400
REMARK  169  A    between atoms: _403  and  _405
REMARK  170  A    between atoms: _405  and  _406
REMARK  171  A    between atoms: _408  and  _410
REMARK  172  A    between atoms: _410  and  _411
REMARK  173  A    between atoms: _413  and  _415
REMARK  174  A    between atoms: _415  and  _416
REMARK  175  A    between atoms: _415  and  _418
REMARK  176  A    between atoms: _418  and  _419
REMARK  177  A    between atoms: _422  and  _424
REMARK  178  A    between atoms: _424  and  _425
REMARK  179  A    between atoms: _424  and  _427
REMARK  180  A    between atoms: _427  and  _428
REMARK  181  A    between atoms: _428  and  _429
REMARK  182  A    between atoms: _431  and  _433
REMARK  183  A    between atoms: _433  and  _434
REMARK  184  A    between atoms: _436  and  _438
REMARK  185  A    between atoms: _438  and  _439
REMARK  186  A    between atoms: _438  and  _441
REMARK  187  A    between atoms: _441  and  _442
REMARK  188  A    between atoms: _446  and  _447
REMARK  189  A    between atoms: _452  and  _454
REMARK  190  A    between atoms: _454  and  _455
REMARK  191  A    between atoms: _454  and  _457
REMARK  192  A    between atoms: _457  and  _458
REMARK  193  A    between atoms: _463  and  _465
REMARK  194  A    between atoms: _465  and  _466
REMARK  195  A    between atoms: _465  and  _468
REMARK  196  A    between atoms: _468  and  _469
REMARK  197  A    between atoms: _474  and  _475
REMARK  198  A    between atoms: _477  and  _479
REMARK  199  A    between atoms: _479  and  _480
REMARK  200  A    between atoms: _479  and  _482
REMARK  201  A    between atoms: _484  and  _486
REMARK  202  A    between atoms: _486  and  _487
REMARK  203  A    between atoms: _486  and  _489
REMARK  204  A    between atoms: _489  and  _490
REMARK  205  A    between atoms: _490  and  _491
REMARK  206  A    between atoms: _491  and  _492
REMARK  207  A    between atoms: _492  and  _493
REMARK  208  A    between atoms: _497  and  _499
REMARK  209  A    between atoms: _499  and  _500
REMARK  210  A    between atoms: _499  and  _502
REMARK  211  A    between atoms: _502  and  _503
REMARK  212  A    between atoms: _503  and  _504
REMARK  213  A    between atoms: _507  and  _509
REMARK  214  A    between atoms: _509  and  _510
REMARK  215  A    between atoms: _509  and  _512
REMARK  216  A    between atoms: _514  and  _516
REMARK  217  A    between atoms: _516  and  _517
REMARK  218  A    between atoms: _520  and  _521
REMARK  219  A    between atoms: _526  and  _528
REMARK  220  A    between atoms: _528  and  _529
REMARK  221  A    between atoms: _528  and  _531
REMARK  222  A    between atoms: _534  and  _536
REMARK  223  A    between atoms: _536  and  _537
REMARK  224  A    between atoms: _536  and  _539
REMARK  225  A    between atoms: _539  and  _540
REMARK  226  A    between atoms: _543  and  _545
REMARK  227  A    between atoms: _545  and  _546
REMARK  228  A    between atoms: _545  and  _548
REMARK  229  A    between atoms: _548  and  _549
REMARK  230  A    between atoms: _555  and  _557
REMARK  231  A    between atoms: _557  and  _558
REMARK  232  A    between atoms: _557  and  _560
REMARK  233  A    between atoms: _560  and  _561
REMARK  234  A    between atoms: _561  and  _562
REMARK  235  A    between atoms: _564  and  _566
REMARK  236  A    between atoms: _566  and  _567
REMARK  237  A    between atoms: _566  and  _569
REMARK  238  A    between atoms: _569  and  _570
REMARK  239  A    between atoms: _570  and  _571
REMARK  240  A    between atoms: _574  and  _576
REMARK  241  A    between atoms: _576  and  _577
REMARK  242  A    between atoms: _576  and  _579
REMARK  243  A    between atoms: _579  and  _580
REMARK  244  A    between atoms: _580  and  _581
REMARK  245  A    between atoms: _581  and  _582
REMARK  246  A    between atoms: _582  and  _583
REMARK  247  A    between atoms: _587  and  _589
REMARK  248  A    between atoms: _589  and  _590
REMARK  249  A    between atoms: _589  and  _592
REMARK  250  A    between atoms: _592  and  _593
REMARK  251  A    between atoms: _598  and  _599
REMARK  252  A    between atoms: _601  and  _603
REMARK  253  A    between atoms: _603  and  _604
REMARK  254  A    between atoms: _603  and  _606
REMARK  255  A    between atoms: _606  and  _607
REMARK  256  A    between atoms: _610  and  _612
REMARK  257  A    between atoms: _612  and  _613
REMARK  258  A    between atoms: _612  and  _615
REMARK  259  A    between atoms: _615  and  _616
REMARK  260  A    between atoms: _621  and  _623
REMARK  261  A    between atoms: _623  and  _624
REMARK  262  A    between atoms: _623  and  _626
REMARK  263  A    between atoms: _626  and  _627
REMARK  264  A    between atoms: _629  and  _631
REMARK  265  A    between atoms: _631  and  _632
REMARK  266  A    between atoms: _631  and  _634
REMARK  267  A    between atoms: _634  and  _635
REMARK  268  A    between atoms: _635  and  _636
REMARK  269  A    between atoms: _636  and  _637
REMARK  270  A    between atoms: _637  and  _638
REMARK  271  A    between atoms: _642  and  _644
REMARK  272  A    between atoms: _644  and  _645
REMARK  273  A    between atoms: _644  and  _647
REMARK  274  A    between atoms: _647  and  _648
REMARK  275  A    between atoms: _648  and  _649
REMARK  276  A    between atoms: _654  and  _656
REMARK  277  A    between atoms: _656  and  _657
REMARK  278  A    between atoms: _656  and  _659
REMARK  279  A    between atoms: _662  and  _664
REMARK  280  A    between atoms: _664  and  _665
REMARK  281  A    between atoms: _664  and  _667
REMARK  282  A    between atoms: _667  and  _668
REMARK  283  A    between atoms: _674  and  _676
REMARK  284  A    between atoms: _676  and  _677
REMARK  285  A    between atoms: _680  and  _682
REMARK  286  A    between atoms: _682  and  _683
REMARK  287  A    between atoms: _682  and  _685
REMARK  288  A    between atoms: _685  and  _686
REMARK  289  A    between atoms: _689  and  _691
REMARK  290  A    between atoms: _691  and  _692
REMARK  291  A    between atoms: _691  and  _694
REMARK  292  A    between atoms: _694  and  _695
REMARK  293  A    between atoms: _695  and  _696
REMARK  294  A    between atoms: _696  and  _697
REMARK  295  A    between atoms: _706  and  _708
REMARK  296  A    between atoms: _708  and  _709
REMARK  297  A    between atoms: _708  and  _711
REMARK  298  A    between atoms: _711  and  _712
REMARK  299  A    between atoms: _718  and  _720
REMARK  300  A    between atoms: _720  and  _721
REMARK  301  A    between atoms: _720  and  _723
REMARK  302  A    between atoms: _723  and  _724
REMARK  303  A    between atoms: _727  and  _729
REMARK  304  A    between atoms: _729  and  _730
REMARK  305  A    between atoms: _729  and  _732
REMARK  306  A    between atoms: _732  and  _733
REMARK  307  A    between atoms: _738  and  _739
REMARK  308  A    between atoms: _741  and  _743
REMARK  309  A    between atoms: _743  and  _744
REMARK  310  A    between atoms: _747  and  _749
REMARK  311  A    between atoms: _749  and  _750
REMARK  312  A    between atoms: _749  and  _752
REMARK  313  A    between atoms: _752  and  _753
REMARK  314  A    between atoms: _753  and  _754
REMARK  315  A    between atoms: _756  and  _758
REMARK  316  A    between atoms: _758  and  _759
REMARK  317  A    between atoms: _758  and  _761
REMARK  318  A    between atoms: _761  and  _762
REMARK  319  A    between atoms: _767  and  _769
REMARK  320  A    between atoms: _769  and  _770
REMARK  321  A    between atoms: _769  and  _772
REMARK  322  A    between atoms: _772  and  _773
REMARK  323  A    between atoms: _773  and  _774
REMARK  324  A    between atoms: _774  and  _775
REMARK  325  A    between atoms: _784  and  _786
REMARK  326  A    between atoms: _786  and  _787
REMARK  327  A    between atoms: _786  and  _789
REMARK  328  A    between atoms: _789  and  _790
REMARK  329  A    between atoms: _790  and  _791
REMARK  330  A    between atoms: _794  and  _796
REMARK  331  A    between atoms: _796  and  _797
REMARK  332  A    between atoms: _796  and  _799
REMARK  333  A    between atoms: _802  and  _804
REMARK  334  A    between atoms: _804  and  _805
REMARK  335  A    between atoms: _804  and  _807
REMARK  336  A    between atoms: _807  and  _808
REMARK                            x       y       z     vdW  Elec       q    Type
REMARK                         _______ _______ _______ _____ _____    ______ ____
ROOT
ATOM      1  CG  LYS A   1       7.339   3.020  -3.535  0.00  0.00    -0.000 C 
ENDROOT
BRANCH   1   2
ATOM      2  CB  LYS A   1       6.368   3.937  -2.809  0.00  0.00    +0.025 C 
BRANCH   2   3
ATOM      3  CA  LYS A   1       5.562   3.202  -1.744  0.00  0.00    +0.133 C 
BRANCH   3   4
ATOM      4  N   LYS A   1       4.760   2.141  -2.350  0.00  0.00    -0.239 NA
ATOM      5  H   LYS A   1       4.567   2.154  -3.372  0.00  0.00    +0.142 HD
ENDBRANCH   3   4
BRANCH   3   6
ATOM      6  C   LYS A   1       4.643   4.153  -1.001  0.00  0.00    +0.224 C 
ATOM      7  O   LYS A   1       4.992   4.682   0.037  0.00  0.00    -0.287 OA
ENDBRANCH   3   6
ENDBRANCH   2   3
ENDBRANCH   1   2
BRANCH   1   8
ATOM      8  CD  LYS A   1       8.247   2.255  -2.608  0.00  0.00    -0.024 C 
BRANCH   8   9
ATOM      9  CE  LYS A   1       9.112   3.122  -1.722  0.00  0.00    -0.086 C 
BRANCH   9  10
ATOM     10  NZ  LYS A   1      10.344   2.400  -1.260  0.00  0.00    +0.380 N 
ATOM     11  HZ1 LYS A   1      10.908   3.031  -0.655  0.00  0.00    -0.089 HD
ATOM     12  HZ2 LYS A   1      10.067   1.556  -0.719  0.00  0.00    -0.089 HD
ATOM     13  HZ3 LYS A   1      10.907   2.115  -2.086  0.00  0.00    -0.089 HD
ENDBRANCH   9  10
ENDBRANCH   8   9
ENDBRANCH   1   8
TORSDOF 7
REMARK  Name = ../refined-set-2016/1i5r/1i5r_pocket.pdb
REMARK  336 active torsions:
REMARK  status: ('A' for Active; 'I' for Inactive)
REMARK    1  A    between atoms: _1  and  _3
REMARK    2  A    between atoms: _3  and  _4
REMARK    3  A    between atoms: _3  and  _6
REMARK    4  A    between atoms: _6  and  _7
REMARK    5  A    between atoms: _10  and  _12
REMARK    6  A    between atoms: _12  and  _13
REMARK    7  A    between atoms: _12  and  _15
REMARK    8  A    between atoms: _15  and  _16
REMARK    9  A    between atoms: _19  and  _21
REMARK   10  A    between atoms: _21  and  _22
REMARK   11  A    between atoms: _24  and  _26
REMARK   12  A    between atoms: _26  and  _27
REMARK   13  A    between atoms: _26  and  _29
REMARK   14  A    between atoms: _31  and  _33
REMARK   15  A    between atoms: _33  and  _34
REMARK   16  A    between atoms: _33  and  _36
REMARK   17  A    between atoms: _36  and  _37
REMARK   18  A    between atoms: _39  and  _41
REMARK   19  A    between atoms: _41  and  _42
REMARK   20  A    between atoms: _41  and  _44
REMARK   21  A    between atoms: _44  and  _45
REMARK   22  A    between atoms: _47  and  _49
REMARK   23  A    between atoms: _49  and  _50
REMARK   24  A    between atoms: _52  and  _54
REMARK   25  A    between atoms: _54  and  _55
REMARK   26  A    between atoms: _54  and  _57
REMARK   27  A    between atoms: _57  and  _58
REMARK   28  A    between atoms: _61  and  _63
REMARK   29  A    between atoms: _63  and  _64
REMARK   30  A    between atoms: _66  and  _68
REMARK   31  A    between atoms: _68  and  _69
REMARK   32  A    between atoms: _68  and  _71
REMARK   33  A    between atoms: _71  and  _72
REMARK   34  A    between atoms: _75  and  _77
REMARK   35  A    between atoms: _77  and  _78
REMARK   36  A    between atoms: _77  and  _80
REMARK   37  A    between atoms: _80  and  _81
REMARK   38  A    between atoms: _86  and  _88
REMARK   39  A    between atoms: _88  and  _89
REMARK   40  A    between atoms: _88  and  _91
REMARK   41  A    between atoms: _91  and  _92
REMARK   42  A    between atoms: _95  and  _97
REMARK   43  A    between atoms: _97  and  _98
REMARK   44  A    between atoms: _97  and  _100
REMARK   45  A    between atoms: _100  and  _101
REMARK   46  A    between atoms: _104  and  _106
REMARK   47  A    between atoms: _106  and  _107
REMARK   48  A    between atoms: _106  and  _109
REMARK   49  A    between atoms: _109  and  _110
REMARK   50  A    between atoms: _110  and  _111
REMARK   51  A    between atoms: _111  and  _112
REMARK   52  A    between atoms: _121  and  _123
REMARK   53  A    between atoms: _123  and  _124
REMARK   54  A    between atoms: _123  and  _126
REMARK   55  A    between atoms: _126  and  _127
REMARK   56  A    between atoms: _130  and  _132
REMARK   57  A    between atoms: _132  and  _133
REMARK   58  A    between atoms: _132  and  _135
REMARK   59  A    between atoms: _135  and  _136
REMARK   60  A    between atoms: _139  and  _141
REMARK   61  A    between atoms: _141  and  _142
REMARK   62  A    between atoms: _141  and  _144
REMARK   63  A    between atoms: _144  and  _145
REMARK   64  A    between atoms: _145  and  _146
REMARK   65  A    between atoms: _146  and  _147
REMARK   66  A    between atoms: _156  and  _158
REMARK   67  A    between atoms: _158  and  _159
REMARK   68  A    between atoms: _158  and  _161
REMARK   69  A    between atoms: _161  and  _162
REMARK   70  A    between atoms: _165  and  _167
REMARK   71  A    between atoms: _167  and  _168
REMARK   72  A    between atoms: _167  and  _170
REMARK   73  A    between atoms: _170  and  _171
REMARK   74  A    between atoms: _171  and  _172
REMARK   75  A    between atoms: _177  and  _179
REMARK   76  A    between atoms: _179  and  _180
REMARK   77  A    between atoms: _179  and  _182
REMARK   78  A    between atoms: _182  and  _183
REMARK   79  A    between atoms: _186  and  _188
REMARK   80  A    between atoms: _188  and  _189
REMARK   81  A    between atoms: _188  and  _191
REMARK   82  A    between atoms: _191  and  _192
REMARK   83  A    between atoms: _195  and  _197
REMARK   84  A    between atoms: _197  and  _198
REMARK   85  A    between atoms: _197  and  _200
REMARK   86  A    between atoms: _203  and  _205
REMARK   87  A    between atoms: _205  and  _206
REMARK   88  A    between atoms: _205  and  _208
REMARK   89  A    between atoms: _208  and  _209
REMARK   90  A    between atoms: _209  and  _210
REMARK   91  A    between atoms: _210  and  _211
REMARK   92  A    between atoms: _220  and  _222
REMARK   93  A    between atoms: _222  and  _223
REMARK   94  A    between atoms: _222  and  _225
REMARK   95  A    between atoms: _225  and  _226
REMARK   96  A    between atoms: _229  and  _231
REMARK   97  A    between atoms: _231  and  _232
REMARK   98  A    between atoms: _231  and  _234
REMARK   99  A    between atoms: _234  and  _235
REMARK  100  A    between atoms: _237  and  _239
REMARK  101  A    between atoms: _239  and  _240
REMARK  102  A    between atoms: _239  and  _242
REMARK  103  A    between atoms: _245  and  _247
REMARK  104  A    between atoms: _247  and  _248
REMARK  105  A    between atoms: _247  and  _250
REMARK  106  A    between atoms: _252  and  _254
REMARK  107  A    between atoms: _254  and  _255
REMARK  108  A    between atoms: _254  and  _257
REMARK  109  A    between atoms: _257  and  _258
REMARK  110  A    between atoms: _263  and  _265
REMARK  111  A    between atoms: _265  and  _266
REMARK  112  A    between atoms: _269  and  _271
REMARK  113  A    between atoms: _271  and  _272
REMARK  114  A    between atoms: _274  and  _276
REMARK  115  A    between atoms: _276  and  _277
REMARK  116  A    between atoms: _276  and  _279
REMARK  117  A    between atoms: _279  and  _280
REMARK  118  A    between atoms: _283  and  _285
REMARK  119  A    between atoms: _285  and  _286
REMARK  120  A    between atoms: _288  and  _290
REMARK  121  A    between atoms: _290  and  _291
REMARK  122  A    between atoms: _290  and  _293
REMARK  123  A    between atoms: _293  and  _294
REMARK  124  A    between atoms: _297  and  _299
REMARK  125  A    between atoms: _299  and  _300
REMARK  126  A    between atoms: _299  and  _302
REMARK  127  A    between atoms: _302  and  _303
REMARK  128  A    between atoms: _306  and  _308
REMARK  129  A    between atoms: _308  and  _309
REMARK  130  A    between atoms: _308  and  _311
REMARK  131  A    between atoms: _311  and  _312
REMARK  132  A    between atoms: _314  and  _316
REMARK  133  A    between atoms: _316  and  _317
REMARK  134  A    between atoms: _316  and  _319
REMARK  135  A    between atoms: _319  and  _320
REMARK  136  A    between atoms: _323  and  _325
REMARK  137  A    between atoms: _325  and  _326
REMARK  138  A    between atoms: _325  and  _328
REMARK  139  A    between atoms: _331  and  _333
REMARK  140  A    between atoms: _333  and  _334
REMARK  141  A    between atoms: _333  and  _336
REMARK  142  A    between atoms: _336  and  _337
REMARK  143  A    between atoms: _342  and  _344
REMARK  144  A    between atoms: _344  and  _345
REMARK  145  A    between atoms: _347  and  _349
REMARK  146  A    between atoms: _349  and  _350
REMARK  147  A    between atoms: _349  and  _352
REMARK  148  A    between atoms: _352  and  _353
REMARK  149  A    between atoms: _353  and  _354
REMARK  150  A    between atoms: _354  and  _355
REMARK  151  A    between atoms: _364  and  _366
REMARK  152  A    between atoms: _366  and  _367
REMARK  153  A    between atoms: _366  and  _369
REMARK  154  A    between atoms: _369  and  _370
REMARK  155  A    between atoms: _370  and  _371
REMARK  156  A    between atoms: _373  and  _375
REMARK  157  A    between atoms: _375  and  _376
REMARK  158  A    between atoms: _375  and  _378
REMARK  159  A    between atoms: _378  and  _379
REMARK  160  A    between atoms: _382  and  _384
REMARK  161  A    between atoms: _384  and  _385
REMARK  162  A    between atoms: _387  and  _389
REMARK  163  A    between atoms: _389  and  _390
REMARK  164  A    between atoms: _389  and  _392
REMARK  165  A    between atoms: _392  and  _393
REMARK  166  A    between atoms: _395  and  _397
REMARK  167  A    between atoms: _397  and  _398
REMARK  168  A    between atoms: _397  and  _400
REMARK  169  A    between atoms: _403  and  _405
REMARK  170  A    between atoms: _405  and  _406
REMARK  171  A    between atoms: _408  and  _410
REMARK  172  A    between atoms: _410  and  _411
REMARK  173  A    between atoms: _413  and  _415
REMARK  174  A    between atoms: _415  and  _416
REMARK  175  A    between atoms: _415  and  _418
REMARK  176  A    between atoms: _418  and  _419
REMARK  177  A    between atoms: _422  and  _424
REMARK  178  A    between atoms: _424  and  _425
REMARK  179  A    between atoms: _424  and  _427
REMARK  180  A    between atoms: _427  and  _428
REMARK  181  A    between atoms: _428  and  _429
REMARK  182  A    between atoms: _431  and  _433
REMARK  183  A    between atoms: _433  and  _434
REMARK  184  A    between atoms: _436  and  _438
REMARK  185  A    between atoms: _438  and  _439
REMARK  186  A    between atoms: _438  and  _441
REMARK  187  A    between atoms: _441  and  _442
REMARK  188  A    between atoms: _446  and  _447
REMARK  189  A    between atoms: _452  and  _454
REMARK  190  A    between atoms: _454  and  _455
REMARK  191  A    between atoms: _454  and  _457
REMARK  192  A    between atoms: _457  and  _458
REMARK  193  A    between atoms: _463  and  _465
REMARK  194  A    between atoms: _465  and  _466
REMARK  195  A    between atoms: _465  and  _468
REMARK  196  A    between atoms: _468  and  _469
REMARK  197  A    between atoms: _474  and  _475
REMARK  198  A    between atoms: _477  and  _479
REMARK  199  A    between atoms: _479  and  _480
REMARK  200  A    between atoms: _479  and  _482
REMARK  201  A    between atoms: _484  and  _486
REMARK  202  A    between atoms: _486  and  _487
REMARK  203  A    between atoms: _486  and  _489
REMARK  204  A    between atoms: _489  and  _490
REMARK  205  A    between atoms: _490  and  _491
REMARK  206  A    between atoms: _491  and  _492
REMARK  207  A    between atoms: _492  and  _493
REMARK  208  A    between atoms: _497  and  _499
REMARK  209  A    between atoms: _499  and  _500
REMARK  210  A    between atoms: _499  and  _502
REMARK  211  A    between atoms: _502  and  _503
REMARK  212  A    between atoms: _503  and  _504
REMARK  213  A    between atoms: _507  and  _509
REMARK  214  A    between atoms: _509  and  _510
REMARK  215  A    between atoms: _509  and  _512
REMARK  216  A    between atoms: _514  and  _516
REMARK  217  A    between atoms: _516  and  _517
REMARK  218  A    between atoms: _520  and  _521
REMARK  219  A    between atoms: _526  and  _528
REMARK  220  A    between atoms: _528  and  _529
REMARK  221  A    between atoms: _528  and  _531
REMARK  222  A    between atoms: _534  and  _536
REMARK  223  A    between atoms: _536  and  _537
REMARK  224  A    between atoms: _536  and  _539
REMARK  225  A    between atoms: _539  and  _540
REMARK  226  A    between atoms: _543  and  _545
REMARK  227  A    between atoms: _545  and  _546
REMARK  228  A    between atoms: _545  and  _548
REMARK  229  A    between atoms: _548  and  _549
REMARK  230  A    between atoms: _555  and  _557
REMARK  231  A    between atoms: _557  and  _558
REMARK  232  A    between atoms: _557  and  _560
REMARK  233  A    between atoms: _560  and  _561
REMARK  234  A    between atoms: _561  and  _562
REMARK  235  A    between atoms: _564  and  _566
REMARK  236  A    between atoms: _566  and  _567
REMARK  237  A    between atoms: _566  and  _569
REMARK  238  A    between atoms: _569  and  _570
REMARK  239  A    between atoms: _570  and  _571
REMARK  240  A    between atoms: _574  and  _576
REMARK  241  A    between atoms: _576  and  _577
REMARK  242  A    between atoms: _576  and  _579
REMARK  243  A    between atoms: _579  and  _580
REMARK  244  A    between atoms: _580  and  _581
REMARK  245  A    between atoms: _581  and  _582
REMARK  246  A    between atoms: _582  and  _583
REMARK  247  A    between atoms: _587  and  _589
REMARK  248  A    between atoms: _589  and  _590
REMARK  249  A    between atoms: _589  and  _592
REMARK  250  A    between atoms: _592  and  _593
REMARK  251  A    between atoms: _598  and  _599
REMARK  252  A    between atoms: _601  and  _603
REMARK  253  A    between atoms: _603  and  _604
REMARK  254  A    between atoms: _603  and  _606
REMARK  255  A    between atoms: _606  and  _607
REMARK  256  A    between atoms: _610  and  _612
REMARK  257  A    between atoms: _612  and  _613
REMARK  258  A    between atoms: _612  and  _615
REMARK  259  A    between atoms: _615  and  _616
REMARK  260  A    between atoms: _621  and  _623
REMARK  261  A    between atoms: _623  and  _624
REMARK  262  A    between atoms: _623  and  _626
REMARK  263  A    between atoms: _626  and  _627
REMARK  264  A    between atoms: _629  and  _631
REMARK  265  A    between atoms: _631  and  _632
REMARK  266  A    between atoms: _631  and  _634
REMARK  267  A    between atoms: _634  and  _635
REMARK  268  A    between atoms: _635  and  _636
REMARK  269  A    between atoms: _636  and  _637
REMARK  270  A    between atoms: _637  and  _638
REMARK  271  A    between atoms: _642  and  _644
REMARK  272  A    between atoms: _644  and  _645
REMARK  273  A    between atoms: _644  and  _647
REMARK  274  A    between atoms: _647  and  _648
REMARK  275  A    between atoms: _648  and  _649
REMARK  276  A    between atoms: _654  and  _656
REMARK  277  A    between atoms: _656  and  _657
REMARK  278  A    between atoms: _656  and  _659
REMARK  279  A    between atoms: _662  and  _664
REMARK  280  A    between atoms: _664  and  _665
REMARK  281  A    between atoms: _664  and  _667
REMARK  282  A    between atoms: _667  and  _668
REMARK  283  A    between atoms: _674  and  _676
REMARK  284  A    between atoms: _676  and  _677
REMARK  285  A    between atoms: _680  and  _682
REMARK  286  A    between atoms: _682  and  _683
REMARK  287  A    between atoms: _682  and  _685
REMARK  288  A    between atoms: _685  and  _686
REMARK  289  A    between atoms: _689  and  _691
REMARK  290  A    between atoms: _691  and  _692
REMARK  291  A    between atoms: _691  and  _694
REMARK  292  A    between atoms: _694  and  _695
REMARK  293  A    between atoms: _695  and  _696
REMARK  294  A    between atoms: _696  and  _697
REMARK  295  A    between atoms: _706  and  _708
REMARK  296  A    between atoms: _708  and  _709
REMARK  297  A    between atoms: _708  and  _711
REMARK  298  A    between atoms: _711  and  _712
REMARK  299  A    between atoms: _718  and  _720
REMARK  300  A    between atoms: _720  and  _721
REMARK  301  A    between atoms: _720  and  _723
REMARK  302  A    between atoms: _723  and  _724
REMARK  303  A    between atoms: _727  and  _729
REMARK  304  A    between atoms: _729  and  _730
REMARK  305  A    between atoms: _729  and  _732
REMARK  306  A    between atoms: _732  and  _733
REMARK  307  A    between atoms: _738  and  _739
REMARK  308  A    between atoms: _741  and  _743
REMARK  309  A    between atoms: _743  and  _744
REMARK  310  A    between atoms: _747  and  _749
REMARK  311  A    between atoms: _749  and  _750
REMARK  312  A    between atoms: _749  and  _752
REMARK  313  A    between atoms: _752  and  _753
REMARK  314  A    between atoms: _753  and  _754
REMARK  315  A    between atoms: _756  and  _758
REMARK  316  A    between atoms: _758  and  _759
REMARK  317  A    between atoms: _758  and  _761
REMARK  318  A    between atoms: _761  and  _762
REMARK  319  A    between atoms: _767  and  _769
REMARK  320  A    between atoms: _769  and  _770
REMARK  321  A    between atoms: _769  and  _772
REMARK  322  A    between atoms: _772  and  _773
REMARK  323  A    between atoms: _773  and  _774
REMARK  324  A    between atoms: _774  and  _775
REMARK  325  A    between atoms: _784  and  _786
REMARK  326  A    between atoms: _786  and  _787
REMARK  327  A    between atoms: _786  and  _789
REMARK  328  A    between atoms: _789  and  _790
REMARK  329  A    between atoms: _790  and  _791
REMARK  330  A    between atoms: _794  and  _796
REMARK  331  A    between atoms: _796  and  _797
REMARK  332  A    between atoms: _796  and  _799
REMARK  333  A    between atoms: _802  and  _804
REMARK  334  A    between atoms: _804  and  _805
REMARK  335  A    between atoms: _804  and  _807
REMARK  336  A    between atoms: _807  and  _808
REMARK                            x       y       z     vdW  Elec       q    Type
REMARK                         _______ _______ _______ _____ _____    ______ ____
ROOT
ATOM      1  C   CYS A   2      13.761   9.226  -4.295  0.00  0.00    +0.242 C 
ATOM      2  O   CYS A   2      12.650   8.798  -4.582  0.00  0.00    -0.273 OA
ATOM      3  N   GLY A   3      14.524   9.946  -5.109  0.00  0.00    -0.295 N 
ATOM      4  H   GLY A   3      15.401  10.385  -4.762  0.00  0.00    +0.150 HD
ENDROOT
BRANCH   1   5
ATOM      5  CA  CYS A   2      14.437   8.932  -2.970  0.00  0.00    +0.160 C 
BRANCH   5   8
ATOM      6  C   GLU A   1      13.281  10.013  -1.186  0.00  0.00    +0.238 C 
ATOM      7  O   GLU A   1      13.829  11.099  -1.332  0.00  0.00    -0.274 OA
ATOM      8  N   CYS A   2      13.465   8.915  -1.896  0.00  0.00    -0.297 N 
ATOM      9  H   CYS A   2      12.922   8.053  -1.688  0.00  0.00    +0.150 HD
BRANCH   6  10
ATOM     10  CA  GLU A   1      12.271   9.818  -0.058  0.00  0.00    +0.145 C 
BRANCH  10  11
ATOM     11  N   GLU A   1      12.977   9.736   1.217  0.00  0.00    -0.238 NA
ATOM     12  H   GLU A   1      13.050  10.572   1.831  0.00  0.00    +0.142 HD
ENDBRANCH  10  11
BRANCH  10  13
ATOM     13  CB  GLU A   1      11.275  10.970  -0.060  0.00  0.00    +0.038 C 
BRANCH  13  14
ATOM     14  CG  GLU A   1      10.398  10.969   1.175  0.00  0.00    +0.116 C 
BRANCH  14  15
ATOM     15  CD  GLU A   1       9.419   9.811   1.209  0.00  0.00    +0.365 C 
ATOM     16  OE2 GLU A   1       8.438   9.937   1.971  0.00  0.00    -0.246 OA
ATOM     17  OE1 GLU A   1       9.616   8.809   0.512  0.00  0.00    -0.246 OA
ENDBRANCH  14  15
ENDBRANCH  13  14
ENDBRANCH  10  13
ENDBRANCH   6  10
ENDBRANCH   5   8
BRANCH   5  18
ATOM     18  CB  CYS A   2      15.082   7.545  -3.098  0.00  0.00    +0.098 C 
ATOM     19  SG  CYS A   2      15.886   7.086  -1.565  0.00  0.00    -0.080 S 
ENDBRANCH   5  18
ENDBRANCH   1   5
BRANCH   3  20
ATOM     20  CA  GLY A   3      14.110  10.112  -6.505  0.00  0.00    +0.176 C 
BRANCH  20  21
ATOM     21  C   GLY A   3      14.776   8.931  -7.229  0.00  0.00    +0.246 C 
ATOM     22  O   GLY A   3      15.174   7.955  -6.605  0.00  0.00    -0.273 OA
ATOM     23  N   PRO A   4      14.951   9.097  -8.530  0.00  0.00    -0.272 N 
ATOM     24  CA  PRO A   4      15.657   8.090  -9.305  0.00  0.00    +0.152 C 
ATOM     25  CB  PRO A   4      15.625   8.617 -10.729  0.00  0.00    +0.031 C 
ATOM     26  CG  PRO A   4      15.459  10.091 -10.576  0.00  0.00    +0.024 C 
ATOM     27  CD  PRO A   4      14.609  10.281  -9.341  0.00  0.00    +0.094 C 
BRANCH  24  28
ATOM     28  C   PRO A   4      17.077   8.026  -8.756  0.00  0.00    +0.241 C 
ATOM     29  O   PRO A   4      17.682   9.031  -8.388  0.00  0.00    -0.273 OA
ATOM     30  N   VAL A   5      17.542   6.800  -8.615  0.00  0.00    -0.298 N 
ATOM     31  H   VAL A   5      16.944   5.987  -8.866  0.00  0.00    +0.150 HD
BRANCH  30  32
ATOM     32  CA  VAL A   5      18.891   6.579  -8.109  0.00  0.00    +0.137 C 
BRANCH  32  33
ATOM     33  CB  VAL A   5      18.868   5.897  -6.741  0.00  0.00    +0.026 C 
ATOM     34  CG2 VAL A   5      18.066   6.696  -5.715  0.00  0.00    +0.002 C 
ATOM     35  CG1 VAL A   5      20.279   5.696  -6.210  0.00  0.00    +0.002 C 
ENDBRANCH  32  33
BRANCH  32  36
ATOM     36  C   VAL A   5      19.619   5.699  -9.125  0.00  0.00    +0.227 C 
ATOM     37  O   VAL A   5      19.002   4.760  -9.618  0.00  0.00    -0.286 OA
ENDBRANCH  32  36
ENDBRANCH  30  32
ENDBRANCH  24  28
ENDBRANCH  20  21
ENDBRANCH   3  20
TORSDOF 14
REMARK  Name = ../refined-set-2016/1i5r/1i5r_pocket.pdb
REMARK  336 active torsions:
REMARK  status: ('A' for Active; 'I' for Inactive)
REMARK    1  A    between atoms: _1  and  _3
REMARK    2  A    between atoms: _3  and  _4
REMARK    3  A    between atoms: _3  and  _6
REMARK    4  A    between atoms: _6  and  _7
REMARK    5  A    between atoms: _10  and  _12
REMARK    6  A    between atoms: _12  and  _13
REMARK    7  A    between atoms: _12  and  _15
REMARK    8  A    between atoms: _15  and  _16
REMARK    9  A    between atoms: _19  and  _21
REMARK   10  A    between atoms: _21  and  _22
REMARK   11  A    between atoms: _24  and  _26
REMARK   12  A    between atoms: _26  and  _27
REMARK   13  A    between atoms: _26  and  _29
REMARK   14  A    between atoms: _31  and  _33
REMARK   15  A    between atoms: _33  and  _34
REMARK   16  A    between atoms: _33  and  _36
REMARK   17  A    between atoms: _36  and  _37
REMARK   18  A    between atoms: _39  and  _41
REMARK   19  A    between atoms: _41  and  _42
REMARK   20  A    between atoms: _41  and  _44
REMARK   21  A    between atoms: _44  and  _45
REMARK   22  A    between atoms: _47  and  _49
REMARK   23  A    between atoms: _49  and  _50
REMARK   24  A    between atoms: _52  and  _54
REMARK   25  A    between atoms: _54  and  _55
REMARK   26  A    between atoms: _54  and  _57
REMARK   27  A    between atoms: _57  and  _58
REMARK   28  A    between atoms: _61  and  _63
REMARK   29  A    between atoms: _63  and  _64
REMARK   30  A    between atoms: _66  and  _68
REMARK   31  A    between atoms: _68  and  _69
REMARK   32  A    between atoms: _68  and  _71
REMARK   33  A    between atoms: _71  and  _72
REMARK   34  A    between atoms: _75  and  _77
REMARK   35  A    between atoms: _77  and  _78
REMARK   36  A    between atoms: _77  and  _80
REMARK   37  A    between atoms: _80  and  _81
REMARK   38  A    between atoms: _86  and  _88
REMARK   39  A    between atoms: _88  and  _89
REMARK   40  A    between atoms: _88  and  _91
REMARK   41  A    between atoms: _91  and  _92
REMARK   42  A    between atoms: _95  and  _97
REMARK   43  A    between atoms: _97  and  _98
REMARK   44  A    between atoms: _97  and  _100
REMARK   45  A    between atoms: _100  and  _101
REMARK   46  A    between atoms: _104  and  _106
REMARK   47  A    between atoms: _106  and  _107
REMARK   48  A    between atoms: _106  and  _109
REMARK   49  A    between atoms: _109  and  _110
REMARK   50  A    between atoms: _110  and  _111
REMARK   51  A    between atoms: _111  and  _112
REMARK   52  A    between atoms: _121  and  _123
REMARK   53  A    between atoms: _123  and  _124
REMARK   54  A    between atoms: _123  and  _126
REMARK   55  A    between atoms: _126  and  _127
REMARK   56  A    between atoms: _130  and  _132
REMARK   57  A    between atoms: _132  and  _133
REMARK   58  A    between atoms: _132  and  _135
REMARK   59  A    between atoms: _135  and  _136
REMARK   60  A    between atoms: _139  and  _141
REMARK   61  A    between atoms: _141  and  _142
REMARK   62  A    between atoms: _141  and  _144
REMARK   63  A    between atoms: _144  and  _145
REMARK   64  A    between atoms: _145  and  _146
REMARK   65  A    between atoms: _146  and  _147
REMARK   66  A    between atoms: _156  and  _158
REMARK   67  A    between atoms: _158  and  _159
REMARK   68  A    between atoms: _158  and  _161
REMARK   69  A    between atoms: _161  and  _162
REMARK   70  A    between atoms: _165  and  _167
REMARK   71  A    between atoms: _167  and  _168
REMARK   72  A    between atoms: _167  and  _170
REMARK   73  A    between atoms: _170  and  _171
REMARK   74  A    between atoms: _171  and  _172
REMARK   75  A    between atoms: _177  and  _179
REMARK   76  A    between atoms: _179  and  _180
REMARK   77  A    between atoms: _179  and  _182
REMARK   78  A    between atoms: _182  and  _183
REMARK   79  A    between atoms: _186  and  _188
REMARK   80  A    between atoms: _188  and  _189
REMARK   81  A    between atoms: _188  and  _191
REMARK   82  A    between atoms: _191  and  _192
REMARK   83  A    between atoms: _195  and  _197
REMARK   84  A    between atoms: _197  and  _198
REMARK   85  A    between atoms: _197  and  _200
REMARK   86  A    between atoms: _203  and  _205
REMARK   87  A    between atoms: _205  and  _206
REMARK   88  A    between atoms: _205  and  _208
REMARK   89  A    between atoms: _208  and  _209
REMARK   90  A    between atoms: _209  and  _210
REMARK   91  A    between atoms: _210  and  _211
REMARK   92  A    between atoms: _220  and  _222
REMARK   93  A    between atoms: _222  and  _223
REMARK   94  A    between atoms: _222  and  _225
REMARK   95  A    between atoms: _225  and  _226
REMARK   96  A    between atoms: _229  and  _231
REMARK   97  A    between atoms: _231  and  _232
REMARK   98  A    between atoms: _231  and  _234
REMARK   99  A    between atoms: _234  and  _235
REMARK  100  A    between atoms: _237  and  _239
REMARK  101  A    between atoms: _239  and  _240
REMARK  102  A    between atoms: _239  and  _242
REMARK  103  A    between atoms: _245  and  _247
REMARK  104  A    between atoms: _247  and  _248
REMARK  105  A    between atoms: _247  and  _250
REMARK  106  A    between atoms: _252  and  _254
REMARK  107  A    between atoms: _254  and  _255
REMARK  108  A    between atoms: _254  and  _257
REMARK  109  A    between atoms: _257  and  _258
REMARK  110  A    between atoms: _263  and  _265
REMARK  111  A    between atoms: _265  and  _266
REMARK  112  A    between atoms: _269  and  _271
REMARK  113  A    between atoms: _271  and  _272
REMARK  114  A    between atoms: _274  and  _276
REMARK  115  A    between atoms: _276  and  _277
REMARK  116  A    between atoms: _276  and  _279
REMARK  117  A    between atoms: _279  and  _280
REMARK  118  A    between atoms: _283  and  _285
REMARK  119  A    between atoms: _285  and  _286
REMARK  120  A    between atoms: _288  and  _290
REMARK  121  A    between atoms: _290  and  _291
REMARK  122  A    between atoms: _290  and  _293
REMARK  123  A    between atoms: _293  and  _294
REMARK  124  A    between atoms: _297  and  _299
REMARK  125  A    between atoms: _299  and  _300
REMARK  126  A    between atoms: _299  and  _302
REMARK  127  A    between atoms: _302  and  _303
REMARK  128  A    between atoms: _306  and  _308
REMARK  129  A    between atoms: _308  and  _309
REMARK  130  A    between atoms: _308  and  _311
REMARK  131  A    between atoms: _311  and  _312
REMARK  132  A    between atoms: _314  and  _316
REMARK  133  A    between atoms: _316  and  _317
REMARK  134  A    between atoms: _316  and  _319
REMARK  135  A    between atoms: _319  and  _320
REMARK  136  A    between atoms: _323  and  _325
REMARK  137  A    between atoms: _325  and  _326
REMARK  138  A    between atoms: _325  and  _328
REMARK  139  A    between atoms: _331  and  _333
REMARK  140  A    between atoms: _333  and  _334
REMARK  141  A    between atoms: _333  and  _336
REMARK  142  A    between atoms: _336  and  _337
REMARK  143  A    between atoms: _342  and  _344
REMARK  144  A    between atoms: _344  and  _345
REMARK  145  A    between atoms: _347  and  _349
REMARK  146  A    between atoms: _349  and  _350
REMARK  147  A    between atoms: _349  and  _352
REMARK  148  A    between atoms: _352  and  _353
REMARK  149  A    between atoms: _353  and  _354
REMARK  150  A    between atoms: _354  and  _355
REMARK  151  A    between atoms: _364  and  _366
REMARK  152  A    between atoms: _366  and  _367
REMARK  153  A    between atoms: _366  and  _369
REMARK  154  A    between atoms: _369  and  _370
REMARK  155  A    between atoms: _370  and  _371
REMARK  156  A    between atoms: _373  and  _375
REMARK  157  A    between atoms: _375  and  _376
REMARK  158  A    between atoms: _375  and  _378
REMARK  159  A    between atoms: _378  and  _379
REMARK  160  A    between atoms: _382  and  _384
REMARK  161  A    between atoms: _384  and  _385
REMARK  162  A    between atoms: _387  and  _389
REMARK  163  A    between atoms: _389  and  _390
REMARK  164  A    between atoms: _389  and  _392
REMARK  165  A    between atoms: _392  and  _393
REMARK  166  A    between atoms: _395  and  _397
REMARK  167  A    between atoms: _397  and  _398
REMARK  168  A    between atoms: _397  and  _400
REMARK  169  A    between atoms: _403  and  _405
REMARK  170  A    between atoms: _405  and  _406
REMARK  171  A    between atoms: _408  and  _410
REMARK  172  A    between atoms: _410  and  _411
REMARK  173  A    between atoms: _413  and  _415
REMARK  174  A    between atoms: _415  and  _416
REMARK  175  A    between atoms: _415  and  _418
REMARK  176  A    between atoms: _418  and  _419
REMARK  177  A    between atoms: _422  and  _424
REMARK  178  A    between atoms: _424  and  _425
REMARK  179  A    between atoms: _424  and  _427
REMARK  180  A    between atoms: _427  and  _428
REMARK  181  A    between atoms: _428  and  _429
REMARK  182  A    between atoms: _431  and  _433
REMARK  183  A    between atoms: _433  and  _434
REMARK  184  A    between atoms: _436  and  _438
REMARK  185  A    between atoms: _438  and  _439
REMARK  186  A    between atoms: _438  and  _441
REMARK  187  A    between atoms: _441  and  _442
REMARK  188  A    between atoms: _446  and  _447
REMARK  189  A    between atoms: _452  and  _454
REMARK  190  A    between atoms: _454  and  _455
REMARK  191  A    between atoms: _454  and  _457
REMARK  192  A    between atoms: _457  and  _458
REMARK  193  A    between atoms: _463  and  _465
REMARK  194  A    between atoms: _465  and  _466
REMARK  195  A    between atoms: _465  and  _468
REMARK  196  A    between atoms: _468  and  _469
REMARK  197  A    between atoms: _474  and  _475
REMARK  198  A    between atoms: _477  and  _479
REMARK  199  A    between atoms: _479  and  _480
REMARK  200  A    between atoms: _479  and  _482
REMARK  201  A    between atoms: _484  and  _486
REMARK  202  A    between atoms: _486  and  _487
REMARK  203  A    between atoms: _486  and  _489
REMARK  204  A    between atoms: _489  and  _490
REMARK  205  A    between atoms: _490  and  _491
REMARK  206  A    between atoms: _491  and  _492
REMARK  207  A    between atoms: _492  and  _493
REMARK  208  A    between atoms: _497  and  _499
REMARK  209  A    between atoms: _499  and  _500
REMARK  210  A    between atoms: _499  and  _502
REMARK  211  A    between atoms: _502  and  _503
REMARK  212  A    between atoms: _503  and  _504
REMARK  213  A    between atoms: _507  and  _509
REMARK  214  A    between atoms: _509  and  _510
REMARK  215  A    between atoms: _509  and  _512
REMARK  216  A    between atoms: _514  and  _516
REMARK  217  A    between atoms: _516  and  _517
REMARK  218  A    between atoms: _520  and  _521
REMARK  219  A    between atoms: _526  and  _528
REMARK  220  A    between atoms: _528  and  _529
REMARK  221  A    between atoms: _528  and  _531
REMARK  222  A    between atoms: _534  and  _536
REMARK  223  A    between atoms: _536  and  _537
REMARK  224  A    between atoms: _536  and  _539
REMARK  225  A    between atoms: _539  and  _540
REMARK  226  A    between atoms: _543  and  _545
REMARK  227  A    between atoms: _545  and  _546
REMARK  228  A    between atoms: _545  and  _548
REMARK  229  A    between atoms: _548  and  _549
REMARK  230  A    between atoms: _555  and  _557
REMARK  231  A    between atoms: _557  and  _558
REMARK  232  A    between atoms: _557  and  _560
REMARK  233  A    between atoms: _560  and  _561
REMARK  234  A    between atoms: _561  and  _562
REMARK  235  A    between atoms: _564  and  _566
REMARK  236  A    between atoms: _566  and  _567
REMARK  237  A    between atoms: _566  and  _569
REMARK  238  A    between atoms: _569  and  _570
REMARK  239  A    between atoms: _570  and  _571
REMARK  240  A    between atoms: _574  and  _576
REMARK  241  A    between atoms: _576  and  _577
REMARK  242  A    between atoms: _576  and  _579
REMARK  243  A    between atoms: _579  and  _580
REMARK  244  A    between atoms: _580  and  _581
REMARK  245  A    between atoms: _581  and  _582
REMARK  246  A    between atoms: _582  and  _583
REMARK  247  A    between atoms: _587  and  _589
REMARK  248  A    between atoms: _589  and  _590
REMARK  249  A    between atoms: _589  and  _592
REMARK  250  A    between atoms: _592  and  _593
REMARK  251  A    between atoms: _598  and  _599
REMARK  252  A    between atoms: _601  and  _603
REMARK  253  A    between atoms: _603  and  _604
REMARK  254  A    between atoms: _603  and  _606
REMARK  255  A    between atoms: _606  and  _607
REMARK  256  A    between atoms: _610  and  _612
REMARK  257  A    between atoms: _612  and  _613
REMARK  258  A    between atoms: _612  and  _615
REMARK  259  A    between atoms: _615  and  _616
REMARK  260  A    between atoms: _621  and  _623
REMARK  261  A    between atoms: _623  and  _624
REMARK  262  A    between atoms: _623  and  _626
REMARK  263  A    between atoms: _626  and  _627
REMARK  264  A    between atoms: _629  and  _631
REMARK  265  A    between atoms: _631  and  _632
REMARK  266  A    between atoms: _631  and  _634
REMARK  267  A    between atoms: _634  and  _635
REMARK  268  A    between atoms: _635  and  _636
REMARK  269  A    between atoms: _636  and  _637
REMARK  270  A    between atoms: _637  and  _638
REMARK  271  A    between atoms: _642  and  _644
REMARK  272  A    between atoms: _644  and  _645
REMARK  273  A    between atoms: _644  and  _647
REMARK  274  A    between atoms: _647  and  _648
REMARK  275  A    between atoms: _648  and  _649
REMARK  276  A    between atoms: _654  and  _656
REMARK  277  A    between atoms: _656  and  _657
REMARK  278  A    between atoms: _656  and  _659
REMARK  279  A    between atoms: _662  and  _664
REMARK  280  A    between atoms: _664  and  _665
REMARK  281  A    between atoms: _664  and  _667
REMARK  282  A    between atoms: _667  and  _668
REMARK  283  A    between atoms: _674  and  _676
REMARK  284  A    between atoms: _676  and  _677
REMARK  285  A    between atoms: _680  and  _682
REMARK  286  A    between atoms: _682  and  _683
REMARK  287  A    between atoms: _682  and  _685
REMARK  288  A    between atoms: _685  and  _686
REMARK  289  A    between atoms: _689  and  _691
REMARK  290  A    between atoms: _691  and  _692
REMARK  291  A    between atoms: _691  and  _694
REMARK  292  A    between atoms: _694  and  _695
REMARK  293  A    between atoms: _695  and  _696
REMARK  294  A    between atoms: _696  and  _697
REMARK  295  A    between atoms: _706  and  _708
REMARK  296  A    between atoms: _708  and  _709
REMARK  297  A    between atoms: _708  and  _711
REMARK  298  A    between atoms: _711  and  _712
REMARK  299  A    between atoms: _718  and  _720
REMARK  300  A    between atoms: _720  and  _721
REMARK  301  A    between atoms: _720  and  _723
REMARK  302  A    between atoms: _723  and  _724
REMARK  303  A    between atoms: _727  and  _729
REMARK  304  A    between atoms: _729  and  _730
REMARK  305  A    between atoms: _729  and  _732
REMARK  306  A    between atoms: _732  and  _733
REMARK  307  A    between atoms: _738  and  _739
REMARK  308  A    between atoms: _741  and  _743
REMARK  309  A    between atoms: _743  and  _744
REMARK  310  A    between atoms: _747  and  _749
REMARK  311  A    between atoms: _749  and  _750
REMARK  312  A    between atoms: _749  and  _752
REMARK  313  A    between atoms: _752  and  _753
REMARK  314  A    between atoms: _753  and  _754
REMARK  315  A    between atoms: _756  and  _758
REMARK  316  A    between atoms: _758  and  _759
REMARK  317  A    between atoms: _758  and  _761
REMARK  318  A    between atoms: _761  and  _762
REMARK  319  A    between atoms: _767  and  _769
REMARK  320  A    between atoms: _769  and  _770
REMARK  321  A    between atoms: _769  and  _772
REMARK  322  A    between atoms: _772  and  _773
REMARK  323  A    between atoms: _773  and  _774
REMARK  324  A    between atoms: _774  and  _775
REMARK  325  A    between atoms: _784  and  _786
REMARK  326  A    between atoms: _786  and  _787
REMARK  327  A    between atoms: _786  and  _789
REMARK  328  A    between atoms: _789  and  _790
REMARK  329  A    between atoms: _790  and  _791
REMARK  330  A    between atoms: _794  and  _796
REMARK  331  A    between atoms: _796  and  _797
REMARK  332  A    between atoms: _796  and  _799
REMARK  333  A    between atoms: _802  and  _804
REMARK  334  A    between atoms: _804  and  _805
REMARK  335  A    between atoms: _804  and  _807
REMARK  336  A    between atoms: _807  and  _808
REMARK                            x       y       z     vdW  Elec       q    Type
REMARK                         _______ _______ _______ _____ _____    ______ ____
ROOT
ATOM      1  CA  THR A   1      21.479   1.502  -9.404  0.00  0.00    +0.160 C 
ENDROOT
BRANCH   1   2
ATOM      2  N   THR A   1      21.305   2.823  -9.978  0.00  0.00    -0.237 NA
ATOM      3  H   THR A   1      20.593   2.932 -10.728  0.00  0.00    +0.142 HD
ENDBRANCH   1   2
BRANCH   1   4
ATOM      4  CB  THR A   1      20.593   1.240  -8.175  0.00  0.00    +0.134 C 
ATOM      5  CG2 THR A   1      20.829   2.103  -6.951  0.00  0.00    +0.034 C 
BRANCH   4   6
ATOM      6  OG1 THR A   1      19.234   1.491  -8.572  0.00  0.00    -0.383 OA
ATOM      7  HG1 THR A   1      18.991   0.883  -9.314  0.00  0.00    +0.210 HD
ENDBRANCH   4   6
ENDBRANCH   1   4
BRANCH   1   8
ATOM      8  C   THR A   1      21.096   0.459 -10.466  0.00  0.00    +0.227 C 
ATOM      9  O   THR A   1      19.939   0.415 -10.884  0.00  0.00    -0.287 OA
ENDBRANCH   1   8
TORSDOF 4
REMARK  Name = ../refined-set-2016/1i5r/1i5r_pocket.pdb
REMARK  336 active torsions:
REMARK  status: ('A' for Active; 'I' for Inactive)
REMARK    1  A    between atoms: _1  and  _3
REMARK    2  A    between atoms: _3  and  _4
REMARK    3  A    between atoms: _3  and  _6
REMARK    4  A    between atoms: _6  and  _7
REMARK    5  A    between atoms: _10  and  _12
REMARK    6  A    between atoms: _12  and  _13
REMARK    7  A    between atoms: _12  and  _15
REMARK    8  A    between atoms: _15  and  _16
REMARK    9  A    between atoms: _19  and  _21
REMARK   10  A    between atoms: _21  and  _22
REMARK   11  A    between atoms: _24  and  _26
REMARK   12  A    between atoms: _26  and  _27
REMARK   13  A    between atoms: _26  and  _29
REMARK   14  A    between atoms: _31  and  _33
REMARK   15  A    between atoms: _33  and  _34
REMARK   16  A    between atoms: _33  and  _36
REMARK   17  A    between atoms: _36  and  _37
REMARK   18  A    between atoms: _39  and  _41
REMARK   19  A    between atoms: _41  and  _42
REMARK   20  A    between atoms: _41  and  _44
REMARK   21  A    between atoms: _44  and  _45
REMARK   22  A    between atoms: _47  and  _49
REMARK   23  A    between atoms: _49  and  _50
REMARK   24  A    between atoms: _52  and  _54
REMARK   25  A    between atoms: _54  and  _55
REMARK   26  A    between atoms: _54  and  _57
REMARK   27  A    between atoms: _57  and  _58
REMARK   28  A    between atoms: _61  and  _63
REMARK   29  A    between atoms: _63  and  _64
REMARK   30  A    between atoms: _66  and  _68
REMARK   31  A    between atoms: _68  and  _69
REMARK   32  A    between atoms: _68  and  _71
REMARK   33  A    between atoms: _71  and  _72
REMARK   34  A    between atoms: _75  and  _77
REMARK   35  A    between atoms: _77  and  _78
REMARK   36  A    between atoms: _77  and  _80
REMARK   37  A    between atoms: _80  and  _81
REMARK   38  A    between atoms: _86  and  _88
REMARK   39  A    between atoms: _88  and  _89
REMARK   40  A    between atoms: _88  and  _91
REMARK   41  A    between atoms: _91  and  _92
REMARK   42  A    between atoms: _95  and  _97
REMARK   43  A    between atoms: _97  and  _98
REMARK   44  A    between atoms: _97  and  _100
REMARK   45  A    between atoms: _100  and  _101
REMARK   46  A    between atoms: _104  and  _106
REMARK   47  A    between atoms: _106  and  _107
REMARK   48  A    between atoms: _106  and  _109
REMARK   49  A    between atoms: _109  and  _110
REMARK   50  A    between atoms: _110  and  _111
REMARK   51  A    between atoms: _111  and  _112
REMARK   52  A    between atoms: _121  and  _123
REMARK   53  A    between atoms: _123  and  _124
REMARK   54  A    between atoms: _123  and  _126
REMARK   55  A    between atoms: _126  and  _127
REMARK   56  A    between atoms: _130  and  _132
REMARK   57  A    between atoms: _132  and  _133
REMARK   58  A    between atoms: _132  and  _135
REMARK   59  A    between atoms: _135  and  _136
REMARK   60  A    between atoms: _139  and  _141
REMARK   61  A    between atoms: _141  and  _142
REMARK   62  A    between atoms: _141  and  _144
REMARK   63  A    between atoms: _144  and  _145
REMARK   64  A    between atoms: _145  and  _146
REMARK   65  A    between atoms: _146  and  _147
REMARK   66  A    between atoms: _156  and  _158
REMARK   67  A    between atoms: _158  and  _159
REMARK   68  A    between atoms: _158  and  _161
REMARK   69  A    between atoms: _161  and  _162
REMARK   70  A    between atoms: _165  and  _167
REMARK   71  A    between atoms: _167  and  _168
REMARK   72  A    between atoms: _167  and  _170
REMARK   73  A    between atoms: _170  and  _171
REMARK   74  A    between atoms: _171  and  _172
REMARK   75  A    between atoms: _177  and  _179
REMARK   76  A    between atoms: _179  and  _180
REMARK   77  A    between atoms: _179  and  _182
REMARK   78  A    between atoms: _182  and  _183
REMARK   79  A    between atoms: _186  and  _188
REMARK   80  A    between atoms: _188  and  _189
REMARK   81  A    between atoms: _188  and  _191
REMARK   82  A    between atoms: _191  and  _192
REMARK   83  A    between atoms: _195  and  _197
REMARK   84  A    between atoms: _197  and  _198
REMARK   85  A    between atoms: _197  and  _200
REMARK   86  A    between atoms: _203  and  _205
REMARK   87  A    between atoms: _205  and  _206
REMARK   88  A    between atoms: _205  and  _208
REMARK   89  A    between atoms: _208  and  _209
REMARK   90  A    between atoms: _209  and  _210
REMARK   91  A    between atoms: _210  and  _211
REMARK   92  A    between atoms: _220  and  _222
REMARK   93  A    between atoms: _222  and  _223
REMARK   94  A    between atoms: _222  and  _225
REMARK   95  A    between atoms: _225  and  _226
REMARK   96  A    between atoms: _229  and  _231
REMARK   97  A    between atoms: _231  and  _232
REMARK   98  A    between atoms: _231  and  _234
REMARK   99  A    between atoms: _234  and  _235
REMARK  100  A    between atoms: _237  and  _239
REMARK  101  A    between atoms: _239  and  _240
REMARK  102  A    between atoms: _239  and  _242
REMARK  103  A    between atoms: _245  and  _247
REMARK  104  A    between atoms: _247  and  _248
REMARK  105  A    between atoms: _247  and  _250
REMARK  106  A    between atoms: _252  and  _254
REMARK  107  A    between atoms: _254  and  _255
REMARK  108  A    between atoms: _254  and  _257
REMARK  109  A    between atoms: _257  and  _258
REMARK  110  A    between atoms: _263  and  _265
REMARK  111  A    between atoms: _265  and  _266
REMARK  112  A    between atoms: _269  and  _271
REMARK  113  A    between atoms: _271  and  _272
REMARK  114  A    between atoms: _274  and  _276
REMARK  115  A    between atoms: _276  and  _277
REMARK  116  A    between atoms: _276  and  _279
REMARK  117  A    between atoms: _279  and  _280
REMARK  118  A    between atoms: _283  and  _285
REMARK  119  A    between atoms: _285  and  _286
REMARK  120  A    between atoms: _288  and  _290
REMARK  121  A    between atoms: _290  and  _291
REMARK  122  A    between atoms: _290  and  _293
REMARK  123  A    between atoms: _293  and  _294
REMARK  124  A    between atoms: _297  and  _299
REMARK  125  A    between atoms: _299  and  _300
REMARK  126  A    between atoms: _299  and  _302
REMARK  127  A    between atoms: _302  and  _303
REMARK  128  A    between atoms: _306  and  _308
REMARK  129  A    between atoms: _308  and  _309
REMARK  130  A    between atoms: _308  and  _311
REMARK  131  A    between atoms: _311  and  _312
REMARK  132  A    between atoms: _314  and  _316
REMARK  133  A    between atoms: _316  and  _317
REMARK  134  A    between atoms: _316  and  _319
REMARK  135  A    between atoms: _319  and  _320
REMARK  136  A    between atoms: _323  and  _325
REMARK  137  A    between atoms: _325  and  _326
REMARK  138  A    between atoms: _325  and  _328
REMARK  139  A    between atoms: _331  and  _333
REMARK  140  A    between atoms: _333  and  _334
REMARK  141  A    between atoms: _333  and  _336
REMARK  142  A    between atoms: _336  and  _337
REMARK  143  A    between atoms: _342  and  _344
REMARK  144  A    between atoms: _344  and  _345
REMARK  145  A    between atoms: _347  and  _349
REMARK  146  A    between atoms: _349  and  _350
REMARK  147  A    between atoms: _349  and  _352
REMARK  148  A    between atoms: _352  and  _353
REMARK  149  A    between atoms: _353  and  _354
REMARK  150  A    between atoms: _354  and  _355
REMARK  151  A    between atoms: _364  and  _366
REMARK  152  A    between atoms: _366  and  _367
REMARK  153  A    between atoms: _366  and  _369
REMARK  154  A    between atoms: _369  and  _370
REMARK  155  A    between atoms: _370  and  _371
REMARK  156  A    between atoms: _373  and  _375
REMARK  157  A    between atoms: _375  and  _376
REMARK  158  A    between atoms: _375  and  _378
REMARK  159  A    between atoms: _378  and  _379
REMARK  160  A    between atoms: _382  and  _384
REMARK  161  A    between atoms: _384  and  _385
REMARK  162  A    between atoms: _387  and  _389
REMARK  163  A    between atoms: _389  and  _390
REMARK  164  A    between atoms: _389  and  _392
REMARK  165  A    between atoms: _392  and  _393
REMARK  166  A    between atoms: _395  and  _397
REMARK  167  A    between atoms: _397  and  _398
REMARK  168  A    between atoms: _397  and  _400
REMARK  169  A    between atoms: _403  and  _405
REMARK  170  A    between atoms: _405  and  _406
REMARK  171  A    between atoms: _408  and  _410
REMARK  172  A    between atoms: _410  and  _411
REMARK  173  A    between atoms: _413  and  _415
REMARK  174  A    between atoms: _415  and  _416
REMARK  175  A    between atoms: _415  and  _418
REMARK  176  A    between atoms: _418  and  _419
REMARK  177  A    between atoms: _422  and  _424
REMARK  178  A    between atoms: _424  and  _425
REMARK  179  A    between atoms: _424  and  _427
REMARK  180  A    between atoms: _427  and  _428
REMARK  181  A    between atoms: _428  and  _429
REMARK  182  A    between atoms: _431  and  _433
REMARK  183  A    between atoms: _433  and  _434
REMARK  184  A    between atoms: _436  and  _438
REMARK  185  A    between atoms: _438  and  _439
REMARK  186  A    between atoms: _438  and  _441
REMARK  187  A    between atoms: _441  and  _442
REMARK  188  A    between atoms: _446  and  _447
REMARK  189  A    between atoms: _452  and  _454
REMARK  190  A    between atoms: _454  and  _455
REMARK  191  A    between atoms: _454  and  _457
REMARK  192  A    between atoms: _457  and  _458
REMARK  193  A    between atoms: _463  and  _465
REMARK  194  A    between atoms: _465  and  _466
REMARK  195  A    between atoms: _465  and  _468
REMARK  196  A    between atoms: _468  and  _469
REMARK  197  A    between atoms: _474  and  _475
REMARK  198  A    between atoms: _477  and  _479
REMARK  199  A    between atoms: _479  and  _480
REMARK  200  A    between atoms: _479  and  _482
REMARK  201  A    between atoms: _484  and  _486
REMARK  202  A    between atoms: _486  and  _487
REMARK  203  A    between atoms: _486  and  _489
REMARK  204  A    between atoms: _489  and  _490
REMARK  205  A    between atoms: _490  and  _491
REMARK  206  A    between atoms: _491  and  _492
REMARK  207  A    between atoms: _492  and  _493
REMARK  208  A    between atoms: _497  and  _499
REMARK  209  A    between atoms: _499  and  _500
REMARK  210  A    between atoms: _499  and  _502
REMARK  211  A    between atoms: _502  and  _503
REMARK  212  A    between atoms: _503  and  _504
REMARK  213  A    between atoms: _507  and  _509
REMARK  214  A    between atoms: _509  and  _510
REMARK  215  A    between atoms: _509  and  _512
REMARK  216  A    between atoms: _514  and  _516
REMARK  217  A    between atoms: _516  and  _517
REMARK  218  A    between atoms: _520  and  _521
REMARK  219  A    between atoms: _526  and  _528
REMARK  220  A    between atoms: _528  and  _529
REMARK  221  A    between atoms: _528  and  _531
REMARK  222  A    between atoms: _534  and  _536
REMARK  223  A    between atoms: _536  and  _537
REMARK  224  A    between atoms: _536  and  _539
REMARK  225  A    between atoms: _539  and  _540
REMARK  226  A    between atoms: _543  and  _545
REMARK  227  A    between atoms: _545  and  _546
REMARK  228  A    between atoms: _545  and  _548
REMARK  229  A    between atoms: _548  and  _549
REMARK  230  A    between atoms: _555  and  _557
REMARK  231  A    between atoms: _557  and  _558
REMARK  232  A    between atoms: _557  and  _560
REMARK  233  A    between atoms: _560  and  _561
REMARK  234  A    between atoms: _561  and  _562
REMARK  235  A    between atoms: _564  and  _566
REMARK  236  A    between atoms: _566  and  _567
REMARK  237  A    between atoms: _566  and  _569
REMARK  238  A    between atoms: _569  and  _570
REMARK  239  A    between atoms: _570  and  _571
REMARK  240  A    between atoms: _574  and  _576
REMARK  241  A    between atoms: _576  and  _577
REMARK  242  A    between atoms: _576  and  _579
REMARK  243  A    between atoms: _579  and  _580
REMARK  244  A    between atoms: _580  and  _581
REMARK  245  A    between atoms: _581  and  _582
REMARK  246  A    between atoms: _582  and  _583
REMARK  247  A    between atoms: _587  and  _589
REMARK  248  A    between atoms: _589  and  _590
REMARK  249  A    between atoms: _589  and  _592
REMARK  250  A    between atoms: _592  and  _593
REMARK  251  A    between atoms: _598  and  _599
REMARK  252  A    between atoms: _601  and  _603
REMARK  253  A    between atoms: _603  and  _604
REMARK  254  A    between atoms: _603  and  _606
REMARK  255  A    between atoms: _606  and  _607
REMARK  256  A    between atoms: _610  and  _612
REMARK  257  A    between atoms: _612  and  _613
REMARK  258  A    between atoms: _612  and  _615
REMARK  259  A    between atoms: _615  and  _616
REMARK  260  A    between atoms: _621  and  _623
REMARK  261  A    between atoms: _623  and  _624
REMARK  262  A    between atoms: _623  and  _626
REMARK  263  A    between atoms: _626  and  _627
REMARK  264  A    between atoms: _629  and  _631
REMARK  265  A    between atoms: _631  and  _632
REMARK  266  A    between atoms: _631  and  _634
REMARK  267  A    between atoms: _634  and  _635
REMARK  268  A    between atoms: _635  and  _636
REMARK  269  A    between atoms: _636  and  _637
REMARK  270  A    between atoms: _637  and  _638
REMARK  271  A    between atoms: _642  and  _644
REMARK  272  A    between atoms: _644  and  _645
REMARK  273  A    between atoms: _644  and  _647
REMARK  274  A    between atoms: _647  and  _648
REMARK  275  A    between atoms: _648  and  _649
REMARK  276  A    between atoms: _654  and  _656
REMARK  277  A    between atoms: _656  and  _657
REMARK  278  A    between atoms: _656  and  _659
REMARK  279  A    between atoms: _662  and  _664
REMARK  280  A    between atoms: _664  and  _665
REMARK  281  A    between atoms: _664  and  _667
REMARK  282  A    between atoms: _667  and  _668
REMARK  283  A    between atoms: _674  and  _676
REMARK  284  A    between atoms: _676  and  _677
REMARK  285  A    between atoms: _680  and  _682
REMARK  286  A    between atoms: _682  and  _683
REMARK  287  A    between atoms: _682  and  _685
REMARK  288  A    between atoms: _685  and  _686
REMARK  289  A    between atoms: _689  and  _691
REMARK  290  A    between atoms: _691  and  _692
REMARK  291  A    between atoms: _691  and  _694
REMARK  292  A    between atoms: _694  and  _695
REMARK  293  A    between atoms: _695  and  _696
REMARK  294  A    between atoms: _696  and  _697
REMARK  295  A    between atoms: _706  and  _708
REMARK  296  A    between atoms: _708  and  _709
REMARK  297  A    between atoms: _708  and  _711
REMARK  298  A    between atoms: _711  and  _712
REMARK  299  A    between atoms: _718  and  _720
REMARK  300  A    between atoms: _720  and  _721
REMARK  301  A    between atoms: _720  and  _723
REMARK  302  A    between atoms: _723  and  _724
REMARK  303  A    between atoms: _727  and  _729
REMARK  304  A    between atoms: _729  and  _730
REMARK  305  A    between atoms: _729  and  _732
REMARK  306  A    between atoms: _732  and  _733
REMARK  307  A    between atoms: _738  and  _739
REMARK  308  A    between atoms: _741  and  _743
REMARK  309  A    between atoms: _743  and  _744
REMARK  310  A    between atoms: _747  and  _749
REMARK  311  A    between atoms: _749  and  _750
REMARK  312  A    between atoms: _749  and  _752
REMARK  313  A    between atoms: _752  and  _753
REMARK  314  A    between atoms: _753  and  _754
REMARK  315  A    between atoms: _756  and  _758
REMARK  316  A    between atoms: _758  and  _759
REMARK  317  A    between atoms: _758  and  _761
REMARK  318  A    between atoms: _761  and  _762
REMARK  319  A    between atoms: _767  and  _769
REMARK  320  A    between atoms: _769  and  _770
REMARK  321  A    between atoms: _769  and  _772
REMARK  322  A    between atoms: _772  and  _773
REMARK  323  A    between atoms: _773  and  _774
REMARK  324  A    between atoms: _774  and  _775
REMARK  325  A    between atoms: _784  and  _786
REMARK  326  A    between atoms: _786  and  _787
REMARK  327  A    between atoms: _786  and  _789
REMARK  328  A    between atoms: _789  and  _790
REMARK  329  A    between atoms: _790  and  _791
REMARK  330  A    between atoms: _794  and  _796
REMARK  331  A    between atoms: _796  and  _797
REMARK  332  A    between atoms: _796  and  _799
REMARK  333  A    between atoms: _802  and  _804
REMARK  334  A    between atoms: _804  and  _805
REMARK  335  A    between atoms: _804  and  _807
REMARK  336  A    between atoms: _807  and  _808
REMARK                            x       y       z     vdW  Elec       q    Type
REMARK                         _______ _______ _______ _____ _____    ______ ____
ROOT
ATOM      1  C   MET A   2      15.990  -5.713 -11.597  0.00  0.00    +0.241 C 
ATOM      2  N   GLU A   3      14.740  -5.988 -11.234  0.00  0.00    -0.297 N 
ATOM      3  H   GLU A   3      14.600  -6.752 -10.543  0.00  0.00    +0.150 HD
ATOM      4  O   MET A   2      16.189  -4.915 -12.519  0.00  0.00    -0.273 OA
ENDROOT
BRANCH   2   5
ATOM      5  CA  GLU A   3      13.555  -5.306 -11.726  0.00  0.00    +0.149 C 
BRANCH   5   6
ATOM      6  C   GLU A   3      13.254  -5.646 -13.172  0.00  0.00    +0.241 C 
ATOM      7  O   GLU A   3      12.099  -5.683 -13.619  0.00  0.00    -0.273 OA
ATOM      8  N   LYS A   4      14.209  -6.120 -13.954  0.00  0.00    -0.298 N 
ATOM      9  H   LYS A   4      15.151  -6.202 -13.521  0.00  0.00    +0.150 HD
BRANCH   8  10
ATOM     10  CA  LYS A   4      14.112  -6.537 -15.327  0.00  0.00    +0.137 C 
BRANCH  10  11
ATOM     11  C   LYS A   4      13.357  -7.848 -15.487  0.00  0.00    +0.227 C 
ATOM     12  O   LYS A   4      13.292  -8.465 -16.549  0.00  0.00    -0.286 OA
ENDBRANCH  10  11
BRANCH  10  13
ATOM     13  CB  LYS A   4      15.494  -6.610 -15.985  0.00  0.00    +0.028 C 
BRANCH  13  14
ATOM     14  CG  LYS A   4      15.476  -6.695 -17.501  0.00  0.00    -0.000 C 
BRANCH  14  15
ATOM     15  CD  LYS A   4      14.671  -5.577 -18.145  0.00  0.00    -0.024 C 
BRANCH  15  16
ATOM     16  CE  LYS A   4      14.245  -5.953 -19.555  0.00  0.00    -0.086 C 
BRANCH  16  17
ATOM     17  NZ  LYS A   4      13.343  -7.138 -19.570  0.00  0.00    +0.380 N 
ATOM     18  HZ1 LYS A   4      12.487  -6.928 -19.017  0.00  0.00    -0.089 HD
ATOM     19  HZ2 LYS A   4      13.836  -7.953 -19.152  0.00  0.00    -0.089 HD
ATOM     20  HZ3 LYS A   4      13.078  -7.358 -20.551  0.00  0.00    -0.089 HD
ENDBRANCH  16  17
ENDBRANCH  15  16
ENDBRANCH  14  15
ENDBRANCH  13  14
ENDBRANCH  10  13
ENDBRANCH   8  10
ENDBRANCH   5   6
BRANCH   5  21
ATOM     21  CB  GLU A   3      13.663  -3.793 -11.536  0.00  0.00    +0.041 C 
BRANCH  21  22
ATOM     22  CG  GLU A   3      12.343  -3.071 -11.328  0.00  0.00    +0.116 C 
BRANCH  22  23
ATOM     23  CD  GLU A   3      11.362  -3.227 -12.468  0.00  0.00    +0.365 C 
ATOM     24  OE2 GLU A   3      10.262  -3.777 -12.255  0.00  0.00    -0.246 OA
ATOM     25  OE1 GLU A   3      11.712  -2.857 -13.611  0.00  0.00    -0.246 OA
ENDBRANCH  22  23
ENDBRANCH  21  22
ENDBRANCH   5  21
ENDBRANCH   2   5
BRANCH   1  26
ATOM     26  CA  MET A   2      17.085  -6.575 -11.013  0.00  0.00    +0.149 C 
BRANCH  26  29
ATOM     27  C   PHE A   1      18.361  -4.556 -10.471  0.00  0.00    +0.239 C 
ATOM     28  O   PHE A   1      17.380  -3.828 -10.571  0.00  0.00    -0.274 OA
ATOM     29  N   MET A   2      18.303  -5.865 -10.672  0.00  0.00    -0.297 N 
ATOM     30  H   MET A   2      19.181  -6.414 -10.580  0.00  0.00    +0.150 HD
BRANCH  27  31
ATOM     31  CA  PHE A   1      19.733  -4.036 -10.075  0.00  0.00    +0.149 C 
BRANCH  31  32
ATOM     32  N   PHE A   1      20.158  -2.862 -10.831  0.00  0.00    -0.238 NA
ATOM     33  H   PHE A   1      19.453  -2.155 -11.121  0.00  0.00    +0.142 HD
ENDBRANCH  31  32
BRANCH  31  34
ATOM     34  CB  PHE A   1      19.769  -3.716  -8.579  0.00  0.00    +0.053 C 
BRANCH  34  35
ATOM     35  CG  PHE A   1      18.905  -2.608  -8.063  0.00  0.00    -0.020 A 
ATOM     36  CD2 PHE A   1      18.719  -2.433  -6.699  0.00  0.00    -0.004 A 
ATOM     37  CE2 PHE A   1      17.930  -1.423  -6.195  0.00  0.00    -0.000 A 
ATOM     38  CZ  PHE A   1      17.298  -0.556  -7.061  0.00  0.00    -0.000 A 
ATOM     39  CE1 PHE A   1      17.446  -0.715  -8.424  0.00  0.00    -0.000 A 
ATOM     40  CD1 PHE A   1      18.253  -1.716  -8.897  0.00  0.00    -0.004 A 
ENDBRANCH  34  35
ENDBRANCH  31  34
ENDBRANCH  27  31
ENDBRANCH  26  29
BRANCH  26  41
ATOM     41  CB  MET A   2      16.576  -7.299  -9.756  0.00  0.00    +0.041 C 
BRANCH  41  42
ATOM     42  CG  MET A   2      17.413  -8.515  -9.397  0.00  0.00    +0.060 C 
BRANCH  42  43
ATOM     43  SD  MET A   2      16.895  -9.297  -7.860  0.00  0.00    -0.139 S 
ATOM     44  CE  MET A   2      17.367  -8.037  -6.676  0.00  0.00    +0.069 C 
ENDBRANCH  42  43
ENDBRANCH  41  42
ENDBRANCH  26  41
ENDBRANCH   1  26
TORSDOF 21
REMARK  Name = ../refined-set-2016/1i5r/1i5r_pocket.pdb
REMARK  336 active torsions:
REMARK  status: ('A' for Active; 'I' for Inactive)
REMARK    1  A    between atoms: _1  and  _3
REMARK    2  A    between atoms: _3  and  _4
REMARK    3  A    between atoms: _3  and  _6
REMARK    4  A    between atoms: _6  and  _7
REMARK    5  A    between atoms: _10  and  _12
REMARK    6  A    between atoms: _12  and  _13
REMARK    7  A    between atoms: _12  and  _15
REMARK    8  A    between atoms: _15  and  _16
REMARK    9  A    between atoms: _19  and  _21
REMARK   10  A    between atoms: _21  and  _22
REMARK   11  A    between atoms: _24  and  _26
REMARK   12  A    between atoms: _26  and  _27
REMARK   13  A    between atoms: _26  and  _29
REMARK   14  A    between atoms: _31  and  _33
REMARK   15  A    between atoms: _33  and  _34
REMARK   16  A    between atoms: _33  and  _36
REMARK   17  A    between atoms: _36  and  _37
REMARK   18  A    between atoms: _39  and  _41
REMARK   19  A    between atoms: _41  and  _42
REMARK   20  A    between atoms: _41  and  _44
REMARK   21  A    between atoms: _44  and  _45
REMARK   22  A    between atoms: _47  and  _49
REMARK   23  A    between atoms: _49  and  _50
REMARK   24  A    between atoms: _52  and  _54
REMARK   25  A    between atoms: _54  and  _55
REMARK   26  A    between atoms: _54  and  _57
REMARK   27  A    between atoms: _57  and  _58
REMARK   28  A    between atoms: _61  and  _63
REMARK   29  A    between atoms: _63  and  _64
REMARK   30  A    between atoms: _66  and  _68
REMARK   31  A    between atoms: _68  and  _69
REMARK   32  A    between atoms: _68  and  _71
REMARK   33  A    between atoms: _71  and  _72
REMARK   34  A    between atoms: _75  and  _77
REMARK   35  A    between atoms: _77  and  _78
REMARK   36  A    between atoms: _77  and  _80
REMARK   37  A    between atoms: _80  and  _81
REMARK   38  A    between atoms: _86  and  _88
REMARK   39  A    between atoms: _88  and  _89
REMARK   40  A    between atoms: _88  and  _91
REMARK   41  A    between atoms: _91  and  _92
REMARK   42  A    between atoms: _95  and  _97
REMARK   43  A    between atoms: _97  and  _98
REMARK   44  A    between atoms: _97  and  _100
REMARK   45  A    between atoms: _100  and  _101
REMARK   46  A    between atoms: _104  and  _106
REMARK   47  A    between atoms: _106  and  _107
REMARK   48  A    between atoms: _106  and  _109
REMARK   49  A    between atoms: _109  and  _110
REMARK   50  A    between atoms: _110  and  _111
REMARK   51  A    between atoms: _111  and  _112
REMARK   52  A    between atoms: _121  and  _123
REMARK   53  A    between atoms: _123  and  _124
REMARK   54  A    between atoms: _123  and  _126
REMARK   55  A    between atoms: _126  and  _127
REMARK   56  A    between atoms: _130  and  _132
REMARK   57  A    between atoms: _132  and  _133
REMARK   58  A    between atoms: _132  and  _135
REMARK   59  A    between atoms: _135  and  _136
REMARK   60  A    between atoms: _139  and  _141
REMARK   61  A    between atoms: _141  and  _142
REMARK   62  A    between atoms: _141  and  _144
REMARK   63  A    between atoms: _144  and  _145
REMARK   64  A    between atoms: _145  and  _146
REMARK   65  A    between atoms: _146  and  _147
REMARK   66  A    between atoms: _156  and  _158
REMARK   67  A    between atoms: _158  and  _159
REMARK   68  A    between atoms: _158  and  _161
REMARK   69  A    between atoms: _161  and  _162
REMARK   70  A    between atoms: _165  and  _167
REMARK   71  A    between atoms: _167  and  _168
REMARK   72  A    between atoms: _167  and  _170
REMARK   73  A    between atoms: _170  and  _171
REMARK   74  A    between atoms: _171  and  _172
REMARK   75  A    between atoms: _177  and  _179
REMARK   76  A    between atoms: _179  and  _180
REMARK   77  A    between atoms: _179  and  _182
REMARK   78  A    between atoms: _182  and  _183
REMARK   79  A    between atoms: _186  and  _188
REMARK   80  A    between atoms: _188  and  _189
REMARK   81  A    between atoms: _188  and  _191
REMARK   82  A    between atoms: _191  and  _192
REMARK   83  A    between atoms: _195  and  _197
REMARK   84  A    between atoms: _197  and  _198
REMARK   85  A    between atoms: _197  and  _200
REMARK   86  A    between atoms: _203  and  _205
REMARK   87  A    between atoms: _205  and  _206
REMARK   88  A    between atoms: _205  and  _208
REMARK   89  A    between atoms: _208  and  _209
REMARK   90  A    between atoms: _209  and  _210
REMARK   91  A    between atoms: _210  and  _211
REMARK   92  A    between atoms: _220  and  _222
REMARK   93  A    between atoms: _222  and  _223
REMARK   94  A    between atoms: _222  and  _225
REMARK   95  A    between atoms: _225  and  _226
REMARK   96  A    between atoms: _229  and  _231
REMARK   97  A    between atoms: _231  and  _232
REMARK   98  A    between atoms: _231  and  _234
REMARK   99  A    between atoms: _234  and  _235
REMARK  100  A    between atoms: _237  and  _239
REMARK  101  A    between atoms: _239  and  _240
REMARK  102  A    between atoms: _239  and  _242
REMARK  103  A    between atoms: _245  and  _247
REMARK  104  A    between atoms: _247  and  _248
REMARK  105  A    between atoms: _247  and  _250
REMARK  106  A    between atoms: _252  and  _254
REMARK  107  A    between atoms: _254  and  _255
REMARK  108  A    between atoms: _254  and  _257
REMARK  109  A    between atoms: _257  and  _258
REMARK  110  A    between atoms: _263  and  _265
REMARK  111  A    between atoms: _265  and  _266
REMARK  112  A    between atoms: _269  and  _271
REMARK  113  A    between atoms: _271  and  _272
REMARK  114  A    between atoms: _274  and  _276
REMARK  115  A    between atoms: _276  and  _277
REMARK  116  A    between atoms: _276  and  _279
REMARK  117  A    between atoms: _279  and  _280
REMARK  118  A    between atoms: _283  and  _285
REMARK  119  A    between atoms: _285  and  _286
REMARK  120  A    between atoms: _288  and  _290
REMARK  121  A    between atoms: _290  and  _291
REMARK  122  A    between atoms: _290  and  _293
REMARK  123  A    between atoms: _293  and  _294
REMARK  124  A    between atoms: _297  and  _299
REMARK  125  A    between atoms: _299  and  _300
REMARK  126  A    between atoms: _299  and  _302
REMARK  127  A    between atoms: _302  and  _303
REMARK  128  A    between atoms: _306  and  _308
REMARK  129  A    between atoms: _308  and  _309
REMARK  130  A    between atoms: _308  and  _311
REMARK  131  A    between atoms: _311  and  _312
REMARK  132  A    between atoms: _314  and  _316
REMARK  133  A    between atoms: _316  and  _317
REMARK  134  A    between atoms: _316  and  _319
REMARK  135  A    between atoms: _319  and  _320
REMARK  136  A    between atoms: _323  and  _325
REMARK  137  A    between atoms: _325  and  _326
REMARK  138  A    between atoms: _325  and  _328
REMARK  139  A    between atoms: _331  and  _333
REMARK  140  A    between atoms: _333  and  _334
REMARK  141  A    between atoms: _333  and  _336
REMARK  142  A    between atoms: _336  and  _337
REMARK  143  A    between atoms: _342  and  _344
REMARK  144  A    between atoms: _344  and  _345
REMARK  145  A    between atoms: _347  and  _349
REMARK  146  A    between atoms: _349  and  _350
REMARK  147  A    between atoms: _349  and  _352
REMARK  148  A    between atoms: _352  and  _353
REMARK  149  A    between atoms: _353  and  _354
REMARK  150  A    between atoms: _354  and  _355
REMARK  151  A    between atoms: _364  and  _366
REMARK  152  A    between atoms: _366  and  _367
REMARK  153  A    between atoms: _366  and  _369
REMARK  154  A    between atoms: _369  and  _370
REMARK  155  A    between atoms: _370  and  _371
REMARK  156  A    between atoms: _373  and  _375
REMARK  157  A    between atoms: _375  and  _376
REMARK  158  A    between atoms: _375  and  _378
REMARK  159  A    between atoms: _378  and  _379
REMARK  160  A    between atoms: _382  and  _384
REMARK  161  A    between atoms: _384  and  _385
REMARK  162  A    between atoms: _387  and  _389
REMARK  163  A    between atoms: _389  and  _390
REMARK  164  A    between atoms: _389  and  _392
REMARK  165  A    between atoms: _392  and  _393
REMARK  166  A    between atoms: _395  and  _397
REMARK  167  A    between atoms: _397  and  _398
REMARK  168  A    between atoms: _397  and  _400
REMARK  169  A    between atoms: _403  and  _405
REMARK  170  A    between atoms: _405  and  _406
REMARK  171  A    between atoms: _408  and  _410
REMARK  172  A    between atoms: _410  and  _411
REMARK  173  A    between atoms: _413  and  _415
REMARK  174  A    between atoms: _415  and  _416
REMARK  175  A    between atoms: _415  and  _418
REMARK  176  A    between atoms: _418  and  _419
REMARK  177  A    between atoms: _422  and  _424
REMARK  178  A    between atoms: _424  and  _425
REMARK  179  A    between atoms: _424  and  _427
REMARK  180  A    between atoms: _427  and  _428
REMARK  181  A    between atoms: _428  and  _429
REMARK  182  A    between atoms: _431  and  _433
REMARK  183  A    between atoms: _433  and  _434
REMARK  184  A    between atoms: _436  and  _438
REMARK  185  A    between atoms: _438  and  _439
REMARK  186  A    between atoms: _438  and  _441
REMARK  187  A    between atoms: _441  and  _442
REMARK  188  A    between atoms: _446  and  _447
REMARK  189  A    between atoms: _452  and  _454
REMARK  190  A    between atoms: _454  and  _455
REMARK  191  A    between atoms: _454  and  _457
REMARK  192  A    between atoms: _457  and  _458
REMARK  193  A    between atoms: _463  and  _465
REMARK  194  A    between atoms: _465  and  _466
REMARK  195  A    between atoms: _465  and  _468
REMARK  196  A    between atoms: _468  and  _469
REMARK  197  A    between atoms: _474  and  _475
REMARK  198  A    between atoms: _477  and  _479
REMARK  199  A    between atoms: _479  and  _480
REMARK  200  A    between atoms: _479  and  _482
REMARK  201  A    between atoms: _484  and  _486
REMARK  202  A    between atoms: _486  and  _487
REMARK  203  A    between atoms: _486  and  _489
REMARK  204  A    between atoms: _489  and  _490
REMARK  205  A    between atoms: _490  and  _491
REMARK  206  A    between atoms: _491  and  _492
REMARK  207  A    between atoms: _492  and  _493
REMARK  208  A    between atoms: _497  and  _499
REMARK  209  A    between atoms: _499  and  _500
REMARK  210  A    between atoms: _499  and  _502
REMARK  211  A    between atoms: _502  and  _503
REMARK  212  A    between atoms: _503  and  _504
REMARK  213  A    between atoms: _507  and  _509
REMARK  214  A    between atoms: _509  and  _510
REMARK  215  A    between atoms: _509  and  _512
REMARK  216  A    between atoms: _514  and  _516
REMARK  217  A    between atoms: _516  and  _517
REMARK  218  A    between atoms: _520  and  _521
REMARK  219  A    between atoms: _526  and  _528
REMARK  220  A    between atoms: _528  and  _529
REMARK  221  A    between atoms: _528  and  _531
REMARK  222  A    between atoms: _534  and  _536
REMARK  223  A    between atoms: _536  and  _537
REMARK  224  A    between atoms: _536  and  _539
REMARK  225  A    between atoms: _539  and  _540
REMARK  226  A    between atoms: _543  and  _545
REMARK  227  A    between atoms: _545  and  _546
REMARK  228  A    between atoms: _545  and  _548
REMARK  229  A    between atoms: _548  and  _549
REMARK  230  A    between atoms: _555  and  _557
REMARK  231  A    between atoms: _557  and  _558
REMARK  232  A    between atoms: _557  and  _560
REMARK  233  A    between atoms: _560  and  _561
REMARK  234  A    between atoms: _561  and  _562
REMARK  235  A    between atoms: _564  and  _566
REMARK  236  A    between atoms: _566  and  _567
REMARK  237  A    between atoms: _566  and  _569
REMARK  238  A    between atoms: _569  and  _570
REMARK  239  A    between atoms: _570  and  _571
REMARK  240  A    between atoms: _574  and  _576
REMARK  241  A    between atoms: _576  and  _577
REMARK  242  A    between atoms: _576  and  _579
REMARK  243  A    between atoms: _579  and  _580
REMARK  244  A    between atoms: _580  and  _581
REMARK  245  A    between atoms: _581  and  _582
REMARK  246  A    between atoms: _582  and  _583
REMARK  247  A    between atoms: _587  and  _589
REMARK  248  A    between atoms: _589  and  _590
REMARK  249  A    between atoms: _589  and  _592
REMARK  250  A    between atoms: _592  and  _593
REMARK  251  A    between atoms: _598  and  _599
REMARK  252  A    between atoms: _601  and  _603
REMARK  253  A    between atoms: _603  and  _604
REMARK  254  A    between atoms: _603  and  _606
REMARK  255  A    between atoms: _606  and  _607
REMARK  256  A    between atoms: _610  and  _612
REMARK  257  A    between atoms: _612  and  _613
REMARK  258  A    between atoms: _612  and  _615
REMARK  259  A    between atoms: _615  and  _616
REMARK  260  A    between atoms: _621  and  _623
REMARK  261  A    between atoms: _623  and  _624
REMARK  262  A    between atoms: _623  and  _626
REMARK  263  A    between atoms: _626  and  _627
REMARK  264  A    between atoms: _629  and  _631
REMARK  265  A    between atoms: _631  and  _632
REMARK  266  A    between atoms: _631  and  _634
REMARK  267  A    between atoms: _634  and  _635
REMARK  268  A    between atoms: _635  and  _636
REMARK  269  A    between atoms: _636  and  _637
REMARK  270  A    between atoms: _637  and  _638
REMARK  271  A    between atoms: _642  and  _644
REMARK  272  A    between atoms: _644  and  _645
REMARK  273  A    between atoms: _644  and  _647
REMARK  274  A    between atoms: _647  and  _648
REMARK  275  A    between atoms: _648  and  _649
REMARK  276  A    between atoms: _654  and  _656
REMARK  277  A    between atoms: _656  and  _657
REMARK  278  A    between atoms: _656  and  _659
REMARK  279  A    between atoms: _662  and  _664
REMARK  280  A    between atoms: _664  and  _665
REMARK  281  A    between atoms: _664  and  _667
REMARK  282  A    between atoms: _667  and  _668
REMARK  283  A    between atoms: _674  and  _676
REMARK  284  A    between atoms: _676  and  _677
REMARK  285  A    between atoms: _680  and  _682
REMARK  286  A    between atoms: _682  and  _683
REMARK  287  A    between atoms: _682  and  _685
REMARK  288  A    between atoms: _685  and  _686
REMARK  289  A    between atoms: _689  and  _691
REMARK  290  A    between atoms: _691  and  _692
REMARK  291  A    between atoms: _691  and  _694
REMARK  292  A    between atoms: _694  and  _695
REMARK  293  A    between atoms: _695  and  _696
REMARK  294  A    between atoms: _696  and  _697
REMARK  295  A    between atoms: _706  and  _708
REMARK  296  A    between atoms: _708  and  _709
REMARK  297  A    between atoms: _708  and  _711
REMARK  298  A    between atoms: _711  and  _712
REMARK  299  A    between atoms: _718  and  _720
REMARK  300  A    between atoms: _720  and  _721
REMARK  301  A    between atoms: _720  and  _723
REMARK  302  A    between atoms: _723  and  _724
REMARK  303  A    between atoms: _727  and  _729
REMARK  304  A    between atoms: _729  and  _730
REMARK  305  A    between atoms: _729  and  _732
REMARK  306  A    between atoms: _732  and  _733
REMARK  307  A    between atoms: _738  and  _739
REMARK  308  A    between atoms: _741  and  _743
REMARK  309  A    between atoms: _743  and  _744
REMARK  310  A    between atoms: _747  and  _749
REMARK  311  A    between atoms: _749  and  _750
REMARK  312  A    between atoms: _749  and  _752
REMARK  313  A    between atoms: _752  and  _753
REMARK  314  A    between atoms: _753  and  _754
REMARK  315  A    between atoms: _756  and  _758
REMARK  316  A    between atoms: _758  and  _759
REMARK  317  A    between atoms: _758  and  _761
REMARK  318  A    between atoms: _761  and  _762
REMARK  319  A    between atoms: _767  and  _769
REMARK  320  A    between atoms: _769  and  _770
REMARK  321  A    between atoms: _769  and  _772
REMARK  322  A    between atoms: _772  and  _773
REMARK  323  A    between atoms: _773  and  _774
REMARK  324  A    between atoms: _774  and  _775
REMARK  325  A    between atoms: _784  and  _786
REMARK  326  A    between atoms: _786  and  _787
REMARK  327  A    between atoms: _786  and  _789
REMARK  328  A    between atoms: _789  and  _790
REMARK  329  A    between atoms: _790  and  _791
REMARK  330  A    between atoms: _794  and  _796
REMARK  331  A    between atoms: _796  and  _797
REMARK  332  A    between atoms: _796  and  _799
REMARK  333  A    between atoms: _802  and  _804
REMARK  334  A    between atoms: _804  and  _805
REMARK  335  A    between atoms: _804  and  _807
REMARK  336  A    between atoms: _807  and  _808
REMARK                            x       y       z     vdW  Elec       q    Type
REMARK                         _______ _______ _______ _____ _____    ______ ____
ROOT
ATOM      1  CA  TYR A   1       6.666   6.442 -20.042  0.00  0.00    +0.149 C 
ENDROOT
BRANCH   1   2
ATOM      2  C   TYR A   1       8.118   6.009 -19.902  0.00  0.00    +0.239 C 
ATOM      3  O   TYR A   1       8.912   6.681 -19.251  0.00  0.00    -0.274 OA
ATOM      4  N   LEU A   2       8.483   4.882 -20.512  0.00  0.00    -0.298 N 
ATOM      5  H   LEU A   2       7.781   4.352 -21.066  0.00  0.00    +0.150 HD
BRANCH   4   6
ATOM      6  CA  LEU A   2       9.850   4.377 -20.417  0.00  0.00    +0.137 C 
BRANCH   6   7
ATOM      7  C   LEU A   2      10.829   5.412 -20.937  0.00  0.00    +0.227 C 
ATOM      8  O   LEU A   2      11.825   5.714 -20.299  0.00  0.00    -0.286 OA
ENDBRANCH   6   7
BRANCH   6   9
ATOM      9  CB  LEU A   2       9.989   3.073 -21.207  0.00  0.00    +0.028 C 
BRANCH   9  10
ATOM     10  CG  LEU A   2       9.198   1.906 -20.589  0.00  0.00    +0.002 C 
ATOM     11  CD2 LEU A   2       9.714   1.614 -19.185  0.00  0.00    +0.000 C 
ATOM     12  CD1 LEU A   2       9.288   0.682 -21.477  0.00  0.00    +0.000 C 
ENDBRANCH   9  10
ENDBRANCH   6   9
ENDBRANCH   4   6
ENDBRANCH   1   2
BRANCH   1  13
ATOM     13  N   TYR A   1       6.258   6.353 -21.440  0.00  0.00    -0.238 NA
ATOM     14  H   TYR A   1       5.469   5.737 -21.721  0.00  0.00    +0.142 HD
ENDBRANCH   1  13
BRANCH   1  15
ATOM     15  CB  TYR A   1       5.755   5.572 -19.137  0.00  0.00    +0.053 C 
BRANCH  15  16
ATOM     16  CG  TYR A   1       6.415   5.562 -17.757  0.00  0.00    -0.020 A 
ATOM     17  CD2 TYR A   1       6.279   6.663 -16.925  0.00  0.00    -0.001 A 
ATOM     18  CE2 TYR A   1       6.925   6.657 -15.692  0.00  0.00    +0.036 A 
ATOM     19  CZ  TYR A   1       7.693   5.584 -15.334  0.00  0.00    +0.134 A 
ATOM     20  CE1 TYR A   1       7.850   4.496 -16.162  0.00  0.00    +0.036 A 
ATOM     21  CD1 TYR A   1       7.192   4.484 -17.377  0.00  0.00    -0.001 A 
BRANCH  19  22
ATOM     22  OH  TYR A   1       8.343   5.589 -14.117  0.00  0.00    -0.506 OA
ATOM     23  HH  TYR A   1       9.320   5.524 -14.266  0.00  0.00    +0.292 HD
ENDBRANCH  19  22
ENDBRANCH  15  16
ENDBRANCH   1  15
TORSDOF 9
REMARK  Name = ../refined-set-2016/1i5r/1i5r_pocket.pdb
REMARK  336 active torsions:
REMARK  status: ('A' for Active; 'I' for Inactive)
REMARK    1  A    between atoms: _1  and  _3
REMARK    2  A    between atoms: _3  and  _4
REMARK    3  A    between atoms: _3  and  _6
REMARK    4  A    between atoms: _6  and  _7
REMARK    5  A    between atoms: _10  and  _12
REMARK    6  A    between atoms: _12  and  _13
REMARK    7  A    between atoms: _12  and  _15
REMARK    8  A    between atoms: _15  and  _16
REMARK    9  A    between atoms: _19  and  _21
REMARK   10  A    between atoms: _21  and  _22
REMARK   11  A    between atoms: _24  and  _26
REMARK   12  A    between atoms: _26  and  _27
REMARK   13  A    between atoms: _26  and  _29
REMARK   14  A    between atoms: _31  and  _33
REMARK   15  A    between atoms: _33  and  _34
REMARK   16  A    between atoms: _33  and  _36
REMARK   17  A    between atoms: _36  and  _37
REMARK   18  A    between atoms: _39  and  _41
REMARK   19  A    between atoms: _41  and  _42
REMARK   20  A    between atoms: _41  and  _44
REMARK   21  A    between atoms: _44  and  _45
REMARK   22  A    between atoms: _47  and  _49
REMARK   23  A    between atoms: _49  and  _50
REMARK   24  A    between atoms: _52  and  _54
REMARK   25  A    between atoms: _54  and  _55
REMARK   26  A    between atoms: _54  and  _57
REMARK   27  A    between atoms: _57  and  _58
REMARK   28  A    between atoms: _61  and  _63
REMARK   29  A    between atoms: _63  and  _64
REMARK   30  A    between atoms: _66  and  _68
REMARK   31  A    between atoms: _68  and  _69
REMARK   32  A    between atoms: _68  and  _71
REMARK   33  A    between atoms: _71  and  _72
REMARK   34  A    between atoms: _75  and  _77
REMARK   35  A    between atoms: _77  and  _78
REMARK   36  A    between atoms: _77  and  _80
REMARK   37  A    between atoms: _80  and  _81
REMARK   38  A    between atoms: _86  and  _88
REMARK   39  A    between atoms: _88  and  _89
REMARK   40  A    between atoms: _88  and  _91
REMARK   41  A    between atoms: _91  and  _92
REMARK   42  A    between atoms: _95  and  _97
REMARK   43  A    between atoms: _97  and  _98
REMARK   44  A    between atoms: _97  and  _100
REMARK   45  A    between atoms: _100  and  _101
REMARK   46  A    between atoms: _104  and  _106
REMARK   47  A    between atoms: _106  and  _107
REMARK   48  A    between atoms: _106  and  _109
REMARK   49  A    between atoms: _109  and  _110
REMARK   50  A    between atoms: _110  and  _111
REMARK   51  A    between atoms: _111  and  _112
REMARK   52  A    between atoms: _121  and  _123
REMARK   53  A    between atoms: _123  and  _124
REMARK   54  A    between atoms: _123  and  _126
REMARK   55  A    between atoms: _126  and  _127
REMARK   56  A    between atoms: _130  and  _132
REMARK   57  A    between atoms: _132  and  _133
REMARK   58  A    between atoms: _132  and  _135
REMARK   59  A    between atoms: _135  and  _136
REMARK   60  A    between atoms: _139  and  _141
REMARK   61  A    between atoms: _141  and  _142
REMARK   62  A    between atoms: _141  and  _144
REMARK   63  A    between atoms: _144  and  _145
REMARK   64  A    between atoms: _145  and  _146
REMARK   65  A    between atoms: _146  and  _147
REMARK   66  A    between atoms: _156  and  _158
REMARK   67  A    between atoms: _158  and  _159
REMARK   68  A    between atoms: _158  and  _161
REMARK   69  A    between atoms: _161  and  _162
REMARK   70  A    between atoms: _165  and  _167
REMARK   71  A    between atoms: _167  and  _168
REMARK   72  A    between atoms: _167  and  _170
REMARK   73  A    between atoms: _170  and  _171
REMARK   74  A    between atoms: _171  and  _172
REMARK   75  A    between atoms: _177  and  _179
REMARK   76  A    between atoms: _179  and  _180
REMARK   77  A    between atoms: _179  and  _182
REMARK   78  A    between atoms: _182  and  _183
REMARK   79  A    between atoms: _186  and  _188
REMARK   80  A    between atoms: _188  and  _189
REMARK   81  A    between atoms: _188  and  _191
REMARK   82  A    between atoms: _191  and  _192
REMARK   83  A    between atoms: _195  and  _197
REMARK   84  A    between atoms: _197  and  _198
REMARK   85  A    between atoms: _197  and  _200
REMARK   86  A    between atoms: _203  and  _205
REMARK   87  A    between atoms: _205  and  _206
REMARK   88  A    between atoms: _205  and  _208
REMARK   89  A    between atoms: _208  and  _209
REMARK   90  A    between atoms: _209  and  _210
REMARK   91  A    between atoms: _210  and  _211
REMARK   92  A    between atoms: _220  and  _222
REMARK   93  A    between atoms: _222  and  _223
REMARK   94  A    between atoms: _222  and  _225
REMARK   95  A    between atoms: _225  and  _226
REMARK   96  A    between atoms: _229  and  _231
REMARK   97  A    between atoms: _231  and  _232
REMARK   98  A    between atoms: _231  and  _234
REMARK   99  A    between atoms: _234  and  _235
REMARK  100  A    between atoms: _237  and  _239
REMARK  101  A    between atoms: _239  and  _240
REMARK  102  A    between atoms: _239  and  _242
REMARK  103  A    between atoms: _245  and  _247
REMARK  104  A    between atoms: _247  and  _248
REMARK  105  A    between atoms: _247  and  _250
REMARK  106  A    between atoms: _252  and  _254
REMARK  107  A    between atoms: _254  and  _255
REMARK  108  A    between atoms: _254  and  _257
REMARK  109  A    between atoms: _257  and  _258
REMARK  110  A    between atoms: _263  and  _265
REMARK  111  A    between atoms: _265  and  _266
REMARK  112  A    between atoms: _269  and  _271
REMARK  113  A    between atoms: _271  and  _272
REMARK  114  A    between atoms: _274  and  _276
REMARK  115  A    between atoms: _276  and  _277
REMARK  116  A    between atoms: _276  and  _279
REMARK  117  A    between atoms: _279  and  _280
REMARK  118  A    between atoms: _283  and  _285
REMARK  119  A    between atoms: _285  and  _286
REMARK  120  A    between atoms: _288  and  _290
REMARK  121  A    between atoms: _290  and  _291
REMARK  122  A    between atoms: _290  and  _293
REMARK  123  A    between atoms: _293  and  _294
REMARK  124  A    between atoms: _297  and  _299
REMARK  125  A    between atoms: _299  and  _300
REMARK  126  A    between atoms: _299  and  _302
REMARK  127  A    between atoms: _302  and  _303
REMARK  128  A    between atoms: _306  and  _308
REMARK  129  A    between atoms: _308  and  _309
REMARK  130  A    between atoms: _308  and  _311
REMARK  131  A    between atoms: _311  and  _312
REMARK  132  A    between atoms: _314  and  _316
REMARK  133  A    between atoms: _316  and  _317
REMARK  134  A    between atoms: _316  and  _319
REMARK  135  A    between atoms: _319  and  _320
REMARK  136  A    between atoms: _323  and  _325
REMARK  137  A    between atoms: _325  and  _326
REMARK  138  A    between atoms: _325  and  _328
REMARK  139  A    between atoms: _331  and  _333
REMARK  140  A    between atoms: _333  and  _334
REMARK  141  A    between atoms: _333  and  _336
REMARK  142  A    between atoms: _336  and  _337
REMARK  143  A    between atoms: _342  and  _344
REMARK  144  A    between atoms: _344  and  _345
REMARK  145  A    between atoms: _347  and  _349
REMARK  146  A    between atoms: _349  and  _350
REMARK  147  A    between atoms: _349  and  _352
REMARK  148  A    between atoms: _352  and  _353
REMARK  149  A    between atoms: _353  and  _354
REMARK  150  A    between atoms: _354  and  _355
REMARK  151  A    between atoms: _364  and  _366
REMARK  152  A    between atoms: _366  and  _367
REMARK  153  A    between atoms: _366  and  _369
REMARK  154  A    between atoms: _369  and  _370
REMARK  155  A    between atoms: _370  and  _371
REMARK  156  A    between atoms: _373  and  _375
REMARK  157  A    between atoms: _375  and  _376
REMARK  158  A    between atoms: _375  and  _378
REMARK  159  A    between atoms: _378  and  _379
REMARK  160  A    between atoms: _382  and  _384
REMARK  161  A    between atoms: _384  and  _385
REMARK  162  A    between atoms: _387  and  _389
REMARK  163  A    between atoms: _389  and  _390
REMARK  164  A    between atoms: _389  and  _392
REMARK  165  A    between atoms: _392  and  _393
REMARK  166  A    between atoms: _395  and  _397
REMARK  167  A    between atoms: _397  and  _398
REMARK  168  A    between atoms: _397  and  _400
REMARK  169  A    between atoms: _403  and  _405
REMARK  170  A    between atoms: _405  and  _406
REMARK  171  A    between atoms: _408  and  _410
REMARK  172  A    between atoms: _410  and  _411
REMARK  173  A    between atoms: _413  and  _415
REMARK  174  A    between atoms: _415  and  _416
REMARK  175  A    between atoms: _415  and  _418
REMARK  176  A    between atoms: _418  and  _419
REMARK  177  A    between atoms: _422  and  _424
REMARK  178  A    between atoms: _424  and  _425
REMARK  179  A    between atoms: _424  and  _427
REMARK  180  A    between atoms: _427  and  _428
REMARK  181  A    between atoms: _428  and  _429
REMARK  182  A    between atoms: _431  and  _433
REMARK  183  A    between atoms: _433  and  _434
REMARK  184  A    between atoms: _436  and  _438
REMARK  185  A    between atoms: _438  and  _439
REMARK  186  A    between atoms: _438  and  _441
REMARK  187  A    between atoms: _441  and  _442
REMARK  188  A    between atoms: _446  and  _447
REMARK  189  A    between atoms: _452  and  _454
REMARK  190  A    between atoms: _454  and  _455
REMARK  191  A    between atoms: _454  and  _457
REMARK  192  A    between atoms: _457  and  _458
REMARK  193  A    between atoms: _463  and  _465
REMARK  194  A    between atoms: _465  and  _466
REMARK  195  A    between atoms: _465  and  _468
REMARK  196  A    between atoms: _468  and  _469
REMARK  197  A    between atoms: _474  and  _475
REMARK  198  A    between atoms: _477  and  _479
REMARK  199  A    between atoms: _479  and  _480
REMARK  200  A    between atoms: _479  and  _482
REMARK  201  A    between atoms: _484  and  _486
REMARK  202  A    between atoms: _486  and  _487
REMARK  203  A    between atoms: _486  and  _489
REMARK  204  A    between atoms: _489  and  _490
REMARK  205  A    between atoms: _490  and  _491
REMARK  206  A    between atoms: _491  and  _492
REMARK  207  A    between atoms: _492  and  _493
REMARK  208  A    between atoms: _497  and  _499
REMARK  209  A    between atoms: _499  and  _500
REMARK  210  A    between atoms: _499  and  _502
REMARK  211  A    between atoms: _502  and  _503
REMARK  212  A    between atoms: _503  and  _504
REMARK  213  A    between atoms: _507  and  _509
REMARK  214  A    between atoms: _509  and  _510
REMARK  215  A    between atoms: _509  and  _512
REMARK  216  A    between atoms: _514  and  _516
REMARK  217  A    between atoms: _516  and  _517
REMARK  218  A    between atoms: _520  and  _521
REMARK  219  A    between atoms: _526  and  _528
REMARK  220  A    between atoms: _528  and  _529
REMARK  221  A    between atoms: _528  and  _531
REMARK  222  A    between atoms: _534  and  _536
REMARK  223  A    between atoms: _536  and  _537
REMARK  224  A    between atoms: _536  and  _539
REMARK  225  A    between atoms: _539  and  _540
REMARK  226  A    between atoms: _543  and  _545
REMARK  227  A    between atoms: _545  and  _546
REMARK  228  A    between atoms: _545  and  _548
REMARK  229  A    between atoms: _548  and  _549
REMARK  230  A    between atoms: _555  and  _557
REMARK  231  A    between atoms: _557  and  _558
REMARK  232  A    between atoms: _557  and  _560
REMARK  233  A    between atoms: _560  and  _561
REMARK  234  A    between atoms: _561  and  _562
REMARK  235  A    between atoms: _564  and  _566
REMARK  236  A    between atoms: _566  and  _567
REMARK  237  A    between atoms: _566  and  _569
REMARK  238  A    between atoms: _569  and  _570
REMARK  239  A    between atoms: _570  and  _571
REMARK  240  A    between atoms: _574  and  _576
REMARK  241  A    between atoms: _576  and  _577
REMARK  242  A    between atoms: _576  and  _579
REMARK  243  A    between atoms: _579  and  _580
REMARK  244  A    between atoms: _580  and  _581
REMARK  245  A    between atoms: _581  and  _582
REMARK  246  A    between atoms: _582  and  _583
REMARK  247  A    between atoms: _587  and  _589
REMARK  248  A    between atoms: _589  and  _590
REMARK  249  A    between atoms: _589  and  _592
REMARK  250  A    between atoms: _592  and  _593
REMARK  251  A    between atoms: _598  and  _599
REMARK  252  A    between atoms: _601  and  _603
REMARK  253  A    between atoms: _603  and  _604
REMARK  254  A    between atoms: _603  and  _606
REMARK  255  A    between atoms: _606  and  _607
REMARK  256  A    between atoms: _610  and  _612
REMARK  257  A    between atoms: _612  and  _613
REMARK  258  A    between atoms: _612  and  _615
REMARK  259  A    between atoms: _615  and  _616
REMARK  260  A    between atoms: _621  and  _623
REMARK  261  A    between atoms: _623  and  _624
REMARK  262  A    between atoms: _623  and  _626
REMARK  263  A    between atoms: _626  and  _627
REMARK  264  A    between atoms: _629  and  _631
REMARK  265  A    between atoms: _631  and  _632
REMARK  266  A    between atoms: _631  and  _634
REMARK  267  A    between atoms: _634  and  _635
REMARK  268  A    between atoms: _635  and  _636
REMARK  269  A    between atoms: _636  and  _637
REMARK  270  A    between atoms: _637  and  _638
REMARK  271  A    between atoms: _642  and  _644
REMARK  272  A    between atoms: _644  and  _645
REMARK  273  A    between atoms: _644  and  _647
REMARK  274  A    between atoms: _647  and  _648
REMARK  275  A    between atoms: _648  and  _649
REMARK  276  A    between atoms: _654  and  _656
REMARK  277  A    between atoms: _656  and  _657
REMARK  278  A    between atoms: _656  and  _659
REMARK  279  A    between atoms: _662  and  _664
REMARK  280  A    between atoms: _664  and  _665
REMARK  281  A    between atoms: _664  and  _667
REMARK  282  A    between atoms: _667  and  _668
REMARK  283  A    between atoms: _674  and  _676
REMARK  284  A    between atoms: _676  and  _677
REMARK  285  A    between atoms: _680  and  _682
REMARK  286  A    between atoms: _682  and  _683
REMARK  287  A    between atoms: _682  and  _685
REMARK  288  A    between atoms: _685  and  _686
REMARK  289  A    between atoms: _689  and  _691
REMARK  290  A    between atoms: _691  and  _692
REMARK  291  A    between atoms: _691  and  _694
REMARK  292  A    between atoms: _694  and  _695
REMARK  293  A    between atoms: _695  and  _696
REMARK  294  A    between atoms: _696  and  _697
REMARK  295  A    between atoms: _706  and  _708
REMARK  296  A    between atoms: _708  and  _709
REMARK  297  A    between atoms: _708  and  _711
REMARK  298  A    between atoms: _711  and  _712
REMARK  299  A    between atoms: _718  and  _720
REMARK  300  A    between atoms: _720  and  _721
REMARK  301  A    between atoms: _720  and  _723
REMARK  302  A    between atoms: _723  and  _724
REMARK  303  A    between atoms: _727  and  _729
REMARK  304  A    between atoms: _729  and  _730
REMARK  305  A    between atoms: _729  and  _732
REMARK  306  A    between atoms: _732  and  _733
REMARK  307  A    between atoms: _738  and  _739
REMARK  308  A    between atoms: _741  and  _743
REMARK  309  A    between atoms: _743  and  _744
REMARK  310  A    between atoms: _747  and  _749
REMARK  311  A    between atoms: _749  and  _750
REMARK  312  A    between atoms: _749  and  _752
REMARK  313  A    between atoms: _752  and  _753
REMARK  314  A    between atoms: _753  and  _754
REMARK  315  A    between atoms: _756  and  _758
REMARK  316  A    between atoms: _758  and  _759
REMARK  317  A    between atoms: _758  and  _761
REMARK  318  A    between atoms: _761  and  _762
REMARK  319  A    between atoms: _767  and  _769
REMARK  320  A    between atoms: _769  and  _770
REMARK  321  A    between atoms: _769  and  _772
REMARK  322  A    between atoms: _772  and  _773
REMARK  323  A    between atoms: _773  and  _774
REMARK  324  A    between atoms: _774  and  _775
REMARK  325  A    between atoms: _784  and  _786
REMARK  326  A    between atoms: _786  and  _787
REMARK  327  A    between atoms: _786  and  _789
REMARK  328  A    between atoms: _789  and  _790
REMARK  329  A    between atoms: _790  and  _791
REMARK  330  A    between atoms: _794  and  _796
REMARK  331  A    between atoms: _796  and  _797
REMARK  332  A    between atoms: _796  and  _799
REMARK  333  A    between atoms: _802  and  _804
REMARK  334  A    between atoms: _804  and  _805
REMARK  335  A    between atoms: _804  and  _807
REMARK  336  A    between atoms: _807  and  _808
REMARK                            x       y       z     vdW  Elec       q    Type
REMARK                         _______ _______ _______ _____ _____    ______ ____
ROOT
ATOM      1  C   LYS A   3      15.512   8.601 -18.949  0.00  0.00    +0.241 C 
ATOM      2  O   LYS A   3      16.612   8.827 -18.455  0.00  0.00    -0.273 OA
ATOM      3  N   GLN A   4      14.735   9.563 -19.445  0.00  0.00    -0.297 N 
ATOM      4  H   GLN A   4      13.814   9.314 -19.860  0.00  0.00    +0.150 HD
ENDROOT
BRANCH   3   5
ATOM      5  CA  GLN A   4      15.153  10.952 -19.415  0.00  0.00    +0.149 C 
BRANCH   5   6
ATOM      6  C   GLN A   4      15.257  11.460 -17.984  0.00  0.00    +0.241 C 
ATOM      7  N   VAL A   5      14.255  11.113 -17.171  0.00  0.00    -0.297 N 
ATOM      8  H   VAL A   5      13.459  10.551 -17.536  0.00  0.00    +0.150 HD
ATOM      9  O   GLN A   4      16.230  12.103 -17.600  0.00  0.00    -0.273 OA
BRANCH   7  10
ATOM     10  CA  VAL A   5      14.278  11.523 -15.769  0.00  0.00    +0.149 C 
BRANCH  10  11
ATOM     11  C   VAL A   5      15.505  10.958 -15.074  0.00  0.00    +0.241 C 
ATOM     12  O   VAL A   5      16.170  11.672 -14.325  0.00  0.00    -0.273 OA
ATOM     13  N   PHE A   6      15.822   9.690 -15.304  0.00  0.00    -0.298 N 
ATOM     14  H   PHE A   6      15.211   9.105 -15.910  0.00  0.00    +0.150 HD
BRANCH  13  15
ATOM     15  CA  PHE A   6      17.025   9.112 -14.710  0.00  0.00    +0.141 C 
BRANCH  15  16
ATOM     16  C   PHE A   6      18.284   9.770 -15.249  0.00  0.00    +0.227 C 
ATOM     17  O   PHE A   6      19.167  10.172 -14.501  0.00  0.00    -0.286 OA
ENDBRANCH  15  16
BRANCH  15  18
ATOM     18  CB  PHE A   6      17.115   7.618 -15.015  0.00  0.00    +0.054 C 
BRANCH  18  19
ATOM     19  CG  PHE A   6      16.436   6.813 -13.944  0.00  0.00    -0.020 A 
ATOM     20  CD2 PHE A   6      17.195   6.187 -12.974  0.00  0.00    -0.004 A 
ATOM     21  CE2 PHE A   6      16.570   5.449 -11.990  0.00  0.00    -0.000 A 
ATOM     22  CZ  PHE A   6      15.197   5.341 -11.976  0.00  0.00    -0.000 A 
ATOM     23  CE1 PHE A   6      14.431   5.974 -12.937  0.00  0.00    -0.000 A 
ATOM     24  CD1 PHE A   6      15.056   6.724 -13.919  0.00  0.00    -0.004 A 
ENDBRANCH  18  19
ENDBRANCH  15  18
ENDBRANCH  13  15
ENDBRANCH  10  11
BRANCH  10  25
ATOM     25  CB  VAL A   5      12.985  11.082 -15.057  0.00  0.00    +0.027 C 
ATOM     26  CG2 VAL A   5      13.043  11.338 -13.563  0.00  0.00    +0.002 C 
ATOM     27  CG1 VAL A   5      11.821  11.847 -15.678  0.00  0.00    +0.002 C 
ENDBRANCH  10  25
ENDBRANCH   7  10
ENDBRANCH   5   6
BRANCH   5  28
ATOM     28  CB  GLN A   4      14.207  11.835 -20.229  0.00  0.00    +0.039 C 
BRANCH  28  29
ATOM     29  CG  GLN A   4      14.755  13.250 -20.402  0.00  0.00    +0.087 C 
BRANCH  29  30
ATOM     30  CD  GLN A   4      16.046  13.239 -21.202  0.00  0.00    +0.219 C 
ATOM     31  NE2 GLN A   4      17.108  13.817 -20.661  0.00  0.00    -0.329 N 
ATOM     32 HE21 GLN A   4      17.037  14.263 -19.724  0.00  0.00    +0.145 HD
ATOM     33 HE22 GLN A   4      18.013  13.825 -21.173  0.00  0.00    +0.145 HD
ATOM     34  OE1 GLN A   4      16.079  12.697 -22.309  0.00  0.00    -0.275 OA
ENDBRANCH  29  30
ENDBRANCH  28  29
ENDBRANCH   5  28
ENDBRANCH   3   5
BRANCH   1  35
ATOM     35  CA  LYS A   3      14.973   7.182 -19.035  0.00  0.00    +0.149 C 
BRANCH  35  38
ATOM     36  C   SER A   2      13.157   7.646 -17.486  0.00  0.00    +0.243 C 
ATOM     37  O   SER A   2      13.946   8.078 -16.645  0.00  0.00    -0.273 OA
ATOM     38  N   LYS A   3      13.556   7.169 -18.667  0.00  0.00    -0.297 N 
ATOM     39  H   LYS A   3      12.854   6.785 -19.332  0.00  0.00    +0.150 HD
BRANCH  36  40
ATOM     40  CA  SER A   2      11.657   7.640 -17.227  0.00  0.00    +0.178 C 
BRANCH  40  42
ATOM     41  C   HIS A   1      11.131   9.307 -18.911  0.00  0.00    +0.239 C 
ATOM     42  N   SER A   2      10.922   8.102 -18.406  0.00  0.00    -0.295 N 
ATOM     43  H   SER A   2      10.225   7.473 -18.853  0.00  0.00    +0.150 HD
ATOM     44  O   HIS A   1      11.946  10.094 -18.443  0.00  0.00    -0.274 OA
BRANCH  41  45
ATOM     45  CA  HIS A   1      10.282   9.671 -20.128  0.00  0.00    +0.151 C 
BRANCH  45  46
ATOM     46  N   HIS A   1      10.330   8.602 -21.106  0.00  0.00    -0.238 NA
ATOM     47  H   HIS A   1       9.445   8.120 -21.362  0.00  0.00    +0.142 HD
ENDBRANCH  45  46
BRANCH  45  48
ATOM     48  CB  HIS A   1       8.837   9.897 -19.692  0.00  0.00    +0.074 C 
BRANCH  48  49
ATOM     49  CG  HIS A   1       8.732  10.884 -18.572  0.00  0.00    +0.082 A 
ATOM     50  CD2 HIS A   1       8.289  10.734 -17.302  0.00  0.00    +0.115 A 
ATOM     51  NE2 HIS A   1       8.411  11.959 -16.698  0.00  0.00    -0.221 NA
ATOM     52  CE1 HIS A   1       8.916  12.823 -17.562  0.00  0.00    +0.199 A 
ATOM     53  ND1 HIS A   1       9.127  12.196 -18.701  0.00  0.00    -0.227 NA
ENDBRANCH  48  49
ENDBRANCH  45  48
ENDBRANCH  41  45
ENDBRANCH  40  42
BRANCH  40  54
ATOM     54  CB  SER A   2      11.188   6.240 -16.831  0.00  0.00    +0.166 C 
BRANCH  54  55
ATOM     55  OG  SER A   2      11.997   5.815 -15.731  0.00  0.00    -0.380 OA
ATOM     56  H   SER A   2      11.718   4.908 -15.449  0.00  0.00    +0.211 HD
ENDBRANCH  54  55
ENDBRANCH  40  54
ENDBRANCH  36  40
ENDBRANCH  35  38
BRANCH  35  57
ATOM     57  CB  LYS A   3      15.151   6.669 -20.459  0.00  0.00    +0.029 C 
BRANCH  57  58
ATOM     58  CG  LYS A   3      15.059   5.161 -20.625  0.00  0.00    +0.000 C 
BRANCH  58  59
ATOM     59  CD  LYS A   3      15.315   4.825 -22.095  0.00  0.00    -0.024 C 
BRANCH  59  60
ATOM     60  CE  LYS A   3      15.121   3.348 -22.381  0.00  0.00    -0.086 C 
BRANCH  60  61
ATOM     61  NZ  LYS A   3      15.290   3.065 -23.839  0.00  0.00    +0.380 N 
ATOM     62  HZ1 LYS A   3      15.153   2.049 -24.012  0.00  0.00    -0.089 HD
ATOM     63  HZ2 LYS A   3      16.247   3.342 -24.136  0.00  0.00    -0.089 HD
ATOM     64  HZ3 LYS A   3      14.587   3.608 -24.380  0.00  0.00    -0.089 HD
ENDBRANCH  60  61
ENDBRANCH  59  60
ENDBRANCH  58  59
ENDBRANCH  57  58
ENDBRANCH  35  57
ENDBRANCH   1  35
TORSDOF 27
REMARK  Name = ../refined-set-2016/1i5r/1i5r_pocket.pdb
REMARK  336 active torsions:
REMARK  status: ('A' for Active; 'I' for Inactive)
REMARK    1  A    between atoms: _1  and  _3
REMARK    2  A    between atoms: _3  and  _4
REMARK    3  A    between atoms: _3  and  _6
REMARK    4  A    between atoms: _6  and  _7
REMARK    5  A    between atoms: _10  and  _12
REMARK    6  A    between atoms: _12  and  _13
REMARK    7  A    between atoms: _12  and  _15
REMARK    8  A    between atoms: _15  and  _16
REMARK    9  A    between atoms: _19  and  _21
REMARK   10  A    between atoms: _21  and  _22
REMARK   11  A    between atoms: _24  and  _26
REMARK   12  A    between atoms: _26  and  _27
REMARK   13  A    between atoms: _26  and  _29
REMARK   14  A    between atoms: _31  and  _33
REMARK   15  A    between atoms: _33  and  _34
REMARK   16  A    between atoms: _33  and  _36
REMARK   17  A    between atoms: _36  and  _37
REMARK   18  A    between atoms: _39  and  _41
REMARK   19  A    between atoms: _41  and  _42
REMARK   20  A    between atoms: _41  and  _44
REMARK   21  A    between atoms: _44  and  _45
REMARK   22  A    between atoms: _47  and  _49
REMARK   23  A    between atoms: _49  and  _50
REMARK   24  A    between atoms: _52  and  _54
REMARK   25  A    between atoms: _54  and  _55
REMARK   26  A    between atoms: _54  and  _57
REMARK   27  A    between atoms: _57  and  _58
REMARK   28  A    between atoms: _61  and  _63
REMARK   29  A    between atoms: _63  and  _64
REMARK   30  A    between atoms: _66  and  _68
REMARK   31  A    between atoms: _68  and  _69
REMARK   32  A    between atoms: _68  and  _71
REMARK   33  A    between atoms: _71  and  _72
REMARK   34  A    between atoms: _75  and  _77
REMARK   35  A    between atoms: _77  and  _78
REMARK   36  A    between atoms: _77  and  _80
REMARK   37  A    between atoms: _80  and  _81
REMARK   38  A    between atoms: _86  and  _88
REMARK   39  A    between atoms: _88  and  _89
REMARK   40  A    between atoms: _88  and  _91
REMARK   41  A    between atoms: _91  and  _92
REMARK   42  A    between atoms: _95  and  _97
REMARK   43  A    between atoms: _97  and  _98
REMARK   44  A    between atoms: _97  and  _100
REMARK   45  A    between atoms: _100  and  _101
REMARK   46  A    between atoms: _104  and  _106
REMARK   47  A    between atoms: _106  and  _107
REMARK   48  A    between atoms: _106  and  _109
REMARK   49  A    between atoms: _109  and  _110
REMARK   50  A    between atoms: _110  and  _111
REMARK   51  A    between atoms: _111  and  _112
REMARK   52  A    between atoms: _121  and  _123
REMARK   53  A    between atoms: _123  and  _124
REMARK   54  A    between atoms: _123  and  _126
REMARK   55  A    between atoms: _126  and  _127
REMARK   56  A    between atoms: _130  and  _132
REMARK   57  A    between atoms: _132  and  _133
REMARK   58  A    between atoms: _132  and  _135
REMARK   59  A    between atoms: _135  and  _136
REMARK   60  A    between atoms: _139  and  _141
REMARK   61  A    between atoms: _141  and  _142
REMARK   62  A    between atoms: _141  and  _144
REMARK   63  A    between atoms: _144  and  _145
REMARK   64  A    between atoms: _145  and  _146
REMARK   65  A    between atoms: _146  and  _147
REMARK   66  A    between atoms: _156  and  _158
REMARK   67  A    between atoms: _158  and  _159
REMARK   68  A    between atoms: _158  and  _161
REMARK   69  A    between atoms: _161  and  _162
REMARK   70  A    between atoms: _165  and  _167
REMARK   71  A    between atoms: _167  and  _168
REMARK   72  A    between atoms: _167  and  _170
REMARK   73  A    between atoms: _170  and  _171
REMARK   74  A    between atoms: _171  and  _172
REMARK   75  A    between atoms: _177  and  _179
REMARK   76  A    between atoms: _179  and  _180
REMARK   77  A    between atoms: _179  and  _182
REMARK   78  A    between atoms: _182  and  _183
REMARK   79  A    between atoms: _186  and  _188
REMARK   80  A    between atoms: _188  and  _189
REMARK   81  A    between atoms: _188  and  _191
REMARK   82  A    between atoms: _191  and  _192
REMARK   83  A    between atoms: _195  and  _197
REMARK   84  A    between atoms: _197  and  _198
REMARK   85  A    between atoms: _197  and  _200
REMARK   86  A    between atoms: _203  and  _205
REMARK   87  A    between atoms: _205  and  _206
REMARK   88  A    between atoms: _205  and  _208
REMARK   89  A    between atoms: _208  and  _209
REMARK   90  A    between atoms: _209  and  _210
REMARK   91  A    between atoms: _210  and  _211
REMARK   92  A    between atoms: _220  and  _222
REMARK   93  A    between atoms: _222  and  _223
REMARK   94  A    between atoms: _222  and  _225
REMARK   95  A    between atoms: _225  and  _226
REMARK   96  A    between atoms: _229  and  _231
REMARK   97  A    between atoms: _231  and  _232
REMARK   98  A    between atoms: _231  and  _234
REMARK   99  A    between atoms: _234  and  _235
REMARK  100  A    between atoms: _237  and  _239
REMARK  101  A    between atoms: _239  and  _240
REMARK  102  A    between atoms: _239  and  _242
REMARK  103  A    between atoms: _245  and  _247
REMARK  104  A    between atoms: _247  and  _248
REMARK  105  A    between atoms: _247  and  _250
REMARK  106  A    between atoms: _252  and  _254
REMARK  107  A    between atoms: _254  and  _255
REMARK  108  A    between atoms: _254  and  _257
REMARK  109  A    between atoms: _257  and  _258
REMARK  110  A    between atoms: _263  and  _265
REMARK  111  A    between atoms: _265  and  _266
REMARK  112  A    between atoms: _269  and  _271
REMARK  113  A    between atoms: _271  and  _272
REMARK  114  A    between atoms: _274  and  _276
REMARK  115  A    between atoms: _276  and  _277
REMARK  116  A    between atoms: _276  and  _279
REMARK  117  A    between atoms: _279  and  _280
REMARK  118  A    between atoms: _283  and  _285
REMARK  119  A    between atoms: _285  and  _286
REMARK  120  A    between atoms: _288  and  _290
REMARK  121  A    between atoms: _290  and  _291
REMARK  122  A    between atoms: _290  and  _293
REMARK  123  A    between atoms: _293  and  _294
REMARK  124  A    between atoms: _297  and  _299
REMARK  125  A    between atoms: _299  and  _300
REMARK  126  A    between atoms: _299  and  _302
REMARK  127  A    between atoms: _302  and  _303
REMARK  128  A    between atoms: _306  and  _308
REMARK  129  A    between atoms: _308  and  _309
REMARK  130  A    between atoms: _308  and  _311
REMARK  131  A    between atoms: _311  and  _312
REMARK  132  A    between atoms: _314  and  _316
REMARK  133  A    between atoms: _316  and  _317
REMARK  134  A    between atoms: _316  and  _319
REMARK  135  A    between atoms: _319  and  _320
REMARK  136  A    between atoms: _323  and  _325
REMARK  137  A    between atoms: _325  and  _326
REMARK  138  A    between atoms: _325  and  _328
REMARK  139  A    between atoms: _331  and  _333
REMARK  140  A    between atoms: _333  and  _334
REMARK  141  A    between atoms: _333  and  _336
REMARK  142  A    between atoms: _336  and  _337
REMARK  143  A    between atoms: _342  and  _344
REMARK  144  A    between atoms: _344  and  _345
REMARK  145  A    between atoms: _347  and  _349
REMARK  146  A    between atoms: _349  and  _350
REMARK  147  A    between atoms: _349  and  _352
REMARK  148  A    between atoms: _352  and  _353
REMARK  149  A    between atoms: _353  and  _354
REMARK  150  A    between atoms: _354  and  _355
REMARK  151  A    between atoms: _364  and  _366
REMARK  152  A    between atoms: _366  and  _367
REMARK  153  A    between atoms: _366  and  _369
REMARK  154  A    between atoms: _369  and  _370
REMARK  155  A    between atoms: _370  and  _371
REMARK  156  A    between atoms: _373  and  _375
REMARK  157  A    between atoms: _375  and  _376
REMARK  158  A    between atoms: _375  and  _378
REMARK  159  A    between atoms: _378  and  _379
REMARK  160  A    between atoms: _382  and  _384
REMARK  161  A    between atoms: _384  and  _385
REMARK  162  A    between atoms: _387  and  _389
REMARK  163  A    between atoms: _389  and  _390
REMARK  164  A    between atoms: _389  and  _392
REMARK  165  A    between atoms: _392  and  _393
REMARK  166  A    between atoms: _395  and  _397
REMARK  167  A    between atoms: _397  and  _398
REMARK  168  A    between atoms: _397  and  _400
REMARK  169  A    between atoms: _403  and  _405
REMARK  170  A    between atoms: _405  and  _406
REMARK  171  A    between atoms: _408  and  _410
REMARK  172  A    between atoms: _410  and  _411
REMARK  173  A    between atoms: _413  and  _415
REMARK  174  A    between atoms: _415  and  _416
REMARK  175  A    between atoms: _415  and  _418
REMARK  176  A    between atoms: _418  and  _419
REMARK  177  A    between atoms: _422  and  _424
REMARK  178  A    between atoms: _424  and  _425
REMARK  179  A    between atoms: _424  and  _427
REMARK  180  A    between atoms: _427  and  _428
REMARK  181  A    between atoms: _428  and  _429
REMARK  182  A    between atoms: _431  and  _433
REMARK  183  A    between atoms: _433  and  _434
REMARK  184  A    between atoms: _436  and  _438
REMARK  185  A    between atoms: _438  and  _439
REMARK  186  A    between atoms: _438  and  _441
REMARK  187  A    between atoms: _441  and  _442
REMARK  188  A    between atoms: _446  and  _447
REMARK  189  A    between atoms: _452  and  _454
REMARK  190  A    between atoms: _454  and  _455
REMARK  191  A    between atoms: _454  and  _457
REMARK  192  A    between atoms: _457  and  _458
REMARK  193  A    between atoms: _463  and  _465
REMARK  194  A    between atoms: _465  and  _466
REMARK  195  A    between atoms: _465  and  _468
REMARK  196  A    between atoms: _468  and  _469
REMARK  197  A    between atoms: _474  and  _475
REMARK  198  A    between atoms: _477  and  _479
REMARK  199  A    between atoms: _479  and  _480
REMARK  200  A    between atoms: _479  and  _482
REMARK  201  A    between atoms: _484  and  _486
REMARK  202  A    between atoms: _486  and  _487
REMARK  203  A    between atoms: _486  and  _489
REMARK  204  A    between atoms: _489  and  _490
REMARK  205  A    between atoms: _490  and  _491
REMARK  206  A    between atoms: _491  and  _492
REMARK  207  A    between atoms: _492  and  _493
REMARK  208  A    between atoms: _497  and  _499
REMARK  209  A    between atoms: _499  and  _500
REMARK  210  A    between atoms: _499  and  _502
REMARK  211  A    between atoms: _502  and  _503
REMARK  212  A    between atoms: _503  and  _504
REMARK  213  A    between atoms: _507  and  _509
REMARK  214  A    between atoms: _509  and  _510
REMARK  215  A    between atoms: _509  and  _512
REMARK  216  A    between atoms: _514  and  _516
REMARK  217  A    between atoms: _516  and  _517
REMARK  218  A    between atoms: _520  and  _521
REMARK  219  A    between atoms: _526  and  _528
REMARK  220  A    between atoms: _528  and  _529
REMARK  221  A    between atoms: _528  and  _531
REMARK  222  A    between atoms: _534  and  _536
REMARK  223  A    between atoms: _536  and  _537
REMARK  224  A    between atoms: _536  and  _539
REMARK  225  A    between atoms: _539  and  _540
REMARK  226  A    between atoms: _543  and  _545
REMARK  227  A    between atoms: _545  and  _546
REMARK  228  A    between atoms: _545  and  _548
REMARK  229  A    between atoms: _548  and  _549
REMARK  230  A    between atoms: _555  and  _557
REMARK  231  A    between atoms: _557  and  _558
REMARK  232  A    between atoms: _557  and  _560
REMARK  233  A    between atoms: _560  and  _561
REMARK  234  A    between atoms: _561  and  _562
REMARK  235  A    between atoms: _564  and  _566
REMARK  236  A    between atoms: _566  and  _567
REMARK  237  A    between atoms: _566  and  _569
REMARK  238  A    between atoms: _569  and  _570
REMARK  239  A    between atoms: _570  and  _571
REMARK  240  A    between atoms: _574  and  _576
REMARK  241  A    between atoms: _576  and  _577
REMARK  242  A    between atoms: _576  and  _579
REMARK  243  A    between atoms: _579  and  _580
REMARK  244  A    between atoms: _580  and  _581
REMARK  245  A    between atoms: _581  and  _582
REMARK  246  A    between atoms: _582  and  _583
REMARK  247  A    between atoms: _587  and  _589
REMARK  248  A    between atoms: _589  and  _590
REMARK  249  A    between atoms: _589  and  _592
REMARK  250  A    between atoms: _592  and  _593
REMARK  251  A    between atoms: _598  and  _599
REMARK  252  A    between atoms: _601  and  _603
REMARK  253  A    between atoms: _603  and  _604
REMARK  254  A    between atoms: _603  and  _606
REMARK  255  A    between atoms: _606  and  _607
REMARK  256  A    between atoms: _610  and  _612
REMARK  257  A    between atoms: _612  and  _613
REMARK  258  A    between atoms: _612  and  _615
REMARK  259  A    between atoms: _615  and  _616
REMARK  260  A    between atoms: _621  and  _623
REMARK  261  A    between atoms: _623  and  _624
REMARK  262  A    between atoms: _623  and  _626
REMARK  263  A    between atoms: _626  and  _627
REMARK  264  A    between atoms: _629  and  _631
REMARK  265  A    between atoms: _631  and  _632
REMARK  266  A    between atoms: _631  and  _634
REMARK  267  A    between atoms: _634  and  _635
REMARK  268  A    between atoms: _635  and  _636
REMARK  269  A    between atoms: _636  and  _637
REMARK  270  A    between atoms: _637  and  _638
REMARK  271  A    between atoms: _642  and  _644
REMARK  272  A    between atoms: _644  and  _645
REMARK  273  A    between atoms: _644  and  _647
REMARK  274  A    between atoms: _647  and  _648
REMARK  275  A    between atoms: _648  and  _649
REMARK  276  A    between atoms: _654  and  _656
REMARK  277  A    between atoms: _656  and  _657
REMARK  278  A    between atoms: _656  and  _659
REMARK  279  A    between atoms: _662  and  _664
REMARK  280  A    between atoms: _664  and  _665
REMARK  281  A    between atoms: _664  and  _667
REMARK  282  A    between atoms: _667  and  _668
REMARK  283  A    between atoms: _674  and  _676
REMARK  284  A    between atoms: _676  and  _677
REMARK  285  A    between atoms: _680  and  _682
REMARK  286  A    between atoms: _682  and  _683
REMARK  287  A    between atoms: _682  and  _685
REMARK  288  A    between atoms: _685  and  _686
REMARK  289  A    between atoms: _689  and  _691
REMARK  290  A    between atoms: _691  and  _692
REMARK  291  A    between atoms: _691  and  _694
REMARK  292  A    between atoms: _694  and  _695
REMARK  293  A    between atoms: _695  and  _696
REMARK  294  A    between atoms: _696  and  _697
REMARK  295  A    between atoms: _706  and  _708
REMARK  296  A    between atoms: _708  and  _709
REMARK  297  A    between atoms: _708  and  _711
REMARK  298  A    between atoms: _711  and  _712
REMARK  299  A    between atoms: _718  and  _720
REMARK  300  A    between atoms: _720  and  _721
REMARK  301  A    between atoms: _720  and  _723
REMARK  302  A    between atoms: _723  and  _724
REMARK  303  A    between atoms: _727  and  _729
REMARK  304  A    between atoms: _729  and  _730
REMARK  305  A    between atoms: _729  and  _732
REMARK  306  A    between atoms: _732  and  _733
REMARK  307  A    between atoms: _738  and  _739
REMARK  308  A    between atoms: _741  and  _743
REMARK  309  A    between atoms: _743  and  _744
REMARK  310  A    between atoms: _747  and  _749
REMARK  311  A    between atoms: _749  and  _750
REMARK  312  A    between atoms: _749  and  _752
REMARK  313  A    between atoms: _752  and  _753
REMARK  314  A    between atoms: _753  and  _754
REMARK  315  A    between atoms: _756  and  _758
REMARK  316  A    between atoms: _758  and  _759
REMARK  317  A    between atoms: _758  and  _761
REMARK  318  A    between atoms: _761  and  _762
REMARK  319  A    between atoms: _767  and  _769
REMARK  320  A    between atoms: _769  and  _770
REMARK  321  A    between atoms: _769  and  _772
REMARK  322  A    between atoms: _772  and  _773
REMARK  323  A    between atoms: _773  and  _774
REMARK  324  A    between atoms: _774  and  _775
REMARK  325  A    between atoms: _784  and  _786
REMARK  326  A    between atoms: _786  and  _787
REMARK  327  A    between atoms: _786  and  _789
REMARK  328  A    between atoms: _789  and  _790
REMARK  329  A    between atoms: _790  and  _791
REMARK  330  A    between atoms: _794  and  _796
REMARK  331  A    between atoms: _796  and  _797
REMARK  332  A    between atoms: _796  and  _799
REMARK  333  A    between atoms: _802  and  _804
REMARK  334  A    between atoms: _804  and  _805
REMARK  335  A    between atoms: _804  and  _807
REMARK  336  A    between atoms: _807  and  _808
REMARK                            x       y       z     vdW  Elec       q    Type
REMARK                         _______ _______ _______ _____ _____    ______ ____
ROOT
ATOM      1  CA  ALA A   1      17.973  13.397 -12.124  0.00  0.00    +0.133 C 
ATOM      2  CB  ALA A   1      16.472  13.575 -11.860  0.00  0.00    +0.027 C 
ENDROOT
BRANCH   1   3
ATOM      3  N   ALA A   1      18.133  13.208 -13.556  0.00  0.00    -0.239 NA
ATOM      4  H   ALA A   1      17.758  12.357 -14.021  0.00  0.00    +0.142 HD
ENDBRANCH   1   3
BRANCH   1   5
ATOM      5  C   ALA A   1      18.477  12.248 -11.279  0.00  0.00    +0.224 C 
ATOM      6  O   ALA A   1      18.433  12.381 -10.059  0.00  0.00    -0.287 OA
ENDBRANCH   1   5
TORSDOF 2
REMARK  Name = ../refined-set-2016/1i5r/1i5r_pocket.pdb
REMARK  336 active torsions:
REMARK  status: ('A' for Active; 'I' for Inactive)
REMARK    1  A    between atoms: _1  and  _3
REMARK    2  A    between atoms: _3  and  _4
REMARK    3  A    between atoms: _3  and  _6
REMARK    4  A    between atoms: _6  and  _7
REMARK    5  A    between atoms: _10  and  _12
REMARK    6  A    between atoms: _12  and  _13
REMARK    7  A    between atoms: _12  and  _15
REMARK    8  A    between atoms: _15  and  _16
REMARK    9  A    between atoms: _19  and  _21
REMARK   10  A    between atoms: _21  and  _22
REMARK   11  A    between atoms: _24  and  _26
REMARK   12  A    between atoms: _26  and  _27
REMARK   13  A    between atoms: _26  and  _29
REMARK   14  A    between atoms: _31  and  _33
REMARK   15  A    between atoms: _33  and  _34
REMARK   16  A    between atoms: _33  and  _36
REMARK   17  A    between atoms: _36  and  _37
REMARK   18  A    between atoms: _39  and  _41
REMARK   19  A    between atoms: _41  and  _42
REMARK   20  A    between atoms: _41  and  _44
REMARK   21  A    between atoms: _44  and  _45
REMARK   22  A    between atoms: _47  and  _49
REMARK   23  A    between atoms: _49  and  _50
REMARK   24  A    between atoms: _52  and  _54
REMARK   25  A    between atoms: _54  and  _55
REMARK   26  A    between atoms: _54  and  _57
REMARK   27  A    between atoms: _57  and  _58
REMARK   28  A    between atoms: _61  and  _63
REMARK   29  A    between atoms: _63  and  _64
REMARK   30  A    between atoms: _66  and  _68
REMARK   31  A    between atoms: _68  and  _69
REMARK   32  A    between atoms: _68  and  _71
REMARK   33  A    between atoms: _71  and  _72
REMARK   34  A    between atoms: _75  and  _77
REMARK   35  A    between atoms: _77  and  _78
REMARK   36  A    between atoms: _77  and  _80
REMARK   37  A    between atoms: _80  and  _81
REMARK   38  A    between atoms: _86  and  _88
REMARK   39  A    between atoms: _88  and  _89
REMARK   40  A    between atoms: _88  and  _91
REMARK   41  A    between atoms: _91  and  _92
REMARK   42  A    between atoms: _95  and  _97
REMARK   43  A    between atoms: _97  and  _98
REMARK   44  A    between atoms: _97  and  _100
REMARK   45  A    between atoms: _100  and  _101
REMARK   46  A    between atoms: _104  and  _106
REMARK   47  A    between atoms: _106  and  _107
REMARK   48  A    between atoms: _106  and  _109
REMARK   49  A    between atoms: _109  and  _110
REMARK   50  A    between atoms: _110  and  _111
REMARK   51  A    between atoms: _111  and  _112
REMARK   52  A    between atoms: _121  and  _123
REMARK   53  A    between atoms: _123  and  _124
REMARK   54  A    between atoms: _123  and  _126
REMARK   55  A    between atoms: _126  and  _127
REMARK   56  A    between atoms: _130  and  _132
REMARK   57  A    between atoms: _132  and  _133
REMARK   58  A    between atoms: _132  and  _135
REMARK   59  A    between atoms: _135  and  _136
REMARK   60  A    between atoms: _139  and  _141
REMARK   61  A    between atoms: _141  and  _142
REMARK   62  A    between atoms: _141  and  _144
REMARK   63  A    between atoms: _144  and  _145
REMARK   64  A    between atoms: _145  and  _146
REMARK   65  A    between atoms: _146  and  _147
REMARK   66  A    between atoms: _156  and  _158
REMARK   67  A    between atoms: _158  and  _159
REMARK   68  A    between atoms: _158  and  _161
REMARK   69  A    between atoms: _161  and  _162
REMARK   70  A    between atoms: _165  and  _167
REMARK   71  A    between atoms: _167  and  _168
REMARK   72  A    between atoms: _167  and  _170
REMARK   73  A    between atoms: _170  and  _171
REMARK   74  A    between atoms: _171  and  _172
REMARK   75  A    between atoms: _177  and  _179
REMARK   76  A    between atoms: _179  and  _180
REMARK   77  A    between atoms: _179  and  _182
REMARK   78  A    between atoms: _182  and  _183
REMARK   79  A    between atoms: _186  and  _188
REMARK   80  A    between atoms: _188  and  _189
REMARK   81  A    between atoms: _188  and  _191
REMARK   82  A    between atoms: _191  and  _192
REMARK   83  A    between atoms: _195  and  _197
REMARK   84  A    between atoms: _197  and  _198
REMARK   85  A    between atoms: _197  and  _200
REMARK   86  A    between atoms: _203  and  _205
REMARK   87  A    between atoms: _205  and  _206
REMARK   88  A    between atoms: _205  and  _208
REMARK   89  A    between atoms: _208  and  _209
REMARK   90  A    between atoms: _209  and  _210
REMARK   91  A    between atoms: _210  and  _211
REMARK   92  A    between atoms: _220  and  _222
REMARK   93  A    between atoms: _222  and  _223
REMARK   94  A    between atoms: _222  and  _225
REMARK   95  A    between atoms: _225  and  _226
REMARK   96  A    between atoms: _229  and  _231
REMARK   97  A    between atoms: _231  and  _232
REMARK   98  A    between atoms: _231  and  _234
REMARK   99  A    between atoms: _234  and  _235
REMARK  100  A    between atoms: _237  and  _239
REMARK  101  A    between atoms: _239  and  _240
REMARK  102  A    between atoms: _239  and  _242
REMARK  103  A    between atoms: _245  and  _247
REMARK  104  A    between atoms: _247  and  _248
REMARK  105  A    between atoms: _247  and  _250
REMARK  106  A    between atoms: _252  and  _254
REMARK  107  A    between atoms: _254  and  _255
REMARK  108  A    between atoms: _254  and  _257
REMARK  109  A    between atoms: _257  and  _258
REMARK  110  A    between atoms: _263  and  _265
REMARK  111  A    between atoms: _265  and  _266
REMARK  112  A    between atoms: _269  and  _271
REMARK  113  A    between atoms: _271  and  _272
REMARK  114  A    between atoms: _274  and  _276
REMARK  115  A    between atoms: _276  and  _277
REMARK  116  A    between atoms: _276  and  _279
REMARK  117  A    between atoms: _279  and  _280
REMARK  118  A    between atoms: _283  and  _285
REMARK  119  A    between atoms: _285  and  _286
REMARK  120  A    between atoms: _288  and  _290
REMARK  121  A    between atoms: _290  and  _291
REMARK  122  A    between atoms: _290  and  _293
REMARK  123  A    between atoms: _293  and  _294
REMARK  124  A    between atoms: _297  and  _299
REMARK  125  A    between atoms: _299  and  _300
REMARK  126  A    between atoms: _299  and  _302
REMARK  127  A    between atoms: _302  and  _303
REMARK  128  A    between atoms: _306  and  _308
REMARK  129  A    between atoms: _308  and  _309
REMARK  130  A    between atoms: _308  and  _311
REMARK  131  A    between atoms: _311  and  _312
REMARK  132  A    between atoms: _314  and  _316
REMARK  133  A    between atoms: _316  and  _317
REMARK  134  A    between atoms: _316  and  _319
REMARK  135  A    between atoms: _319  and  _320
REMARK  136  A    between atoms: _323  and  _325
REMARK  137  A    between atoms: _325  and  _326
REMARK  138  A    between atoms: _325  and  _328
REMARK  139  A    between atoms: _331  and  _333
REMARK  140  A    between atoms: _333  and  _334
REMARK  141  A    between atoms: _333  and  _336
REMARK  142  A    between atoms: _336  and  _337
REMARK  143  A    between atoms: _342  and  _344
REMARK  144  A    between atoms: _344  and  _345
REMARK  145  A    between atoms: _347  and  _349
REMARK  146  A    between atoms: _349  and  _350
REMARK  147  A    between atoms: _349  and  _352
REMARK  148  A    between atoms: _352  and  _353
REMARK  149  A    between atoms: _353  and  _354
REMARK  150  A    between atoms: _354  and  _355
REMARK  151  A    between atoms: _364  and  _366
REMARK  152  A    between atoms: _366  and  _367
REMARK  153  A    between atoms: _366  and  _369
REMARK  154  A    between atoms: _369  and  _370
REMARK  155  A    between atoms: _370  and  _371
REMARK  156  A    between atoms: _373  and  _375
REMARK  157  A    between atoms: _375  and  _376
REMARK  158  A    between atoms: _375  and  _378
REMARK  159  A    between atoms: _378  and  _379
REMARK  160  A    between atoms: _382  and  _384
REMARK  161  A    between atoms: _384  and  _385
REMARK  162  A    between atoms: _387  and  _389
REMARK  163  A    between atoms: _389  and  _390
REMARK  164  A    between atoms: _389  and  _392
REMARK  165  A    between atoms: _392  and  _393
REMARK  166  A    between atoms: _395  and  _397
REMARK  167  A    between atoms: _397  and  _398
REMARK  168  A    between atoms: _397  and  _400
REMARK  169  A    between atoms: _403  and  _405
REMARK  170  A    between atoms: _405  and  _406
REMARK  171  A    between atoms: _408  and  _410
REMARK  172  A    between atoms: _410  and  _411
REMARK  173  A    between atoms: _413  and  _415
REMARK  174  A    between atoms: _415  and  _416
REMARK  175  A    between atoms: _415  and  _418
REMARK  176  A    between atoms: _418  and  _419
REMARK  177  A    between atoms: _422  and  _424
REMARK  178  A    between atoms: _424  and  _425
REMARK  179  A    between atoms: _424  and  _427
REMARK  180  A    between atoms: _427  and  _428
REMARK  181  A    between atoms: _428  and  _429
REMARK  182  A    between atoms: _431  and  _433
REMARK  183  A    between atoms: _433  and  _434
REMARK  184  A    between atoms: _436  and  _438
REMARK  185  A    between atoms: _438  and  _439
REMARK  186  A    between atoms: _438  and  _441
REMARK  187  A    between atoms: _441  and  _442
REMARK  188  A    between atoms: _446  and  _447
REMARK  189  A    between atoms: _452  and  _454
REMARK  190  A    between atoms: _454  and  _455
REMARK  191  A    between atoms: _454  and  _457
REMARK  192  A    between atoms: _457  and  _458
REMARK  193  A    between atoms: _463  and  _465
REMARK  194  A    between atoms: _465  and  _466
REMARK  195  A    between atoms: _465  and  _468
REMARK  196  A    between atoms: _468  and  _469
REMARK  197  A    between atoms: _474  and  _475
REMARK  198  A    between atoms: _477  and  _479
REMARK  199  A    between atoms: _479  and  _480
REMARK  200  A    between atoms: _479  and  _482
REMARK  201  A    between atoms: _484  and  _486
REMARK  202  A    between atoms: _486  and  _487
REMARK  203  A    between atoms: _486  and  _489
REMARK  204  A    between atoms: _489  and  _490
REMARK  205  A    between atoms: _490  and  _491
REMARK  206  A    between atoms: _491  and  _492
REMARK  207  A    between atoms: _492  and  _493
REMARK  208  A    between atoms: _497  and  _499
REMARK  209  A    between atoms: _499  and  _500
REMARK  210  A    between atoms: _499  and  _502
REMARK  211  A    between atoms: _502  and  _503
REMARK  212  A    between atoms: _503  and  _504
REMARK  213  A    between atoms: _507  and  _509
REMARK  214  A    between atoms: _509  and  _510
REMARK  215  A    between atoms: _509  and  _512
REMARK  216  A    between atoms: _514  and  _516
REMARK  217  A    between atoms: _516  and  _517
REMARK  218  A    between atoms: _520  and  _521
REMARK  219  A    between atoms: _526  and  _528
REMARK  220  A    between atoms: _528  and  _529
REMARK  221  A    between atoms: _528  and  _531
REMARK  222  A    between atoms: _534  and  _536
REMARK  223  A    between atoms: _536  and  _537
REMARK  224  A    between atoms: _536  and  _539
REMARK  225  A    between atoms: _539  and  _540
REMARK  226  A    between atoms: _543  and  _545
REMARK  227  A    between atoms: _545  and  _546
REMARK  228  A    between atoms: _545  and  _548
REMARK  229  A    between atoms: _548  and  _549
REMARK  230  A    between atoms: _555  and  _557
REMARK  231  A    between atoms: _557  and  _558
REMARK  232  A    between atoms: _557  and  _560
REMARK  233  A    between atoms: _560  and  _561
REMARK  234  A    between atoms: _561  and  _562
REMARK  235  A    between atoms: _564  and  _566
REMARK  236  A    between atoms: _566  and  _567
REMARK  237  A    between atoms: _566  and  _569
REMARK  238  A    between atoms: _569  and  _570
REMARK  239  A    between atoms: _570  and  _571
REMARK  240  A    between atoms: _574  and  _576
REMARK  241  A    between atoms: _576  and  _577
REMARK  242  A    between atoms: _576  and  _579
REMARK  243  A    between atoms: _579  and  _580
REMARK  244  A    between atoms: _580  and  _581
REMARK  245  A    between atoms: _581  and  _582
REMARK  246  A    between atoms: _582  and  _583
REMARK  247  A    between atoms: _587  and  _589
REMARK  248  A    between atoms: _589  and  _590
REMARK  249  A    between atoms: _589  and  _592
REMARK  250  A    between atoms: _592  and  _593
REMARK  251  A    between atoms: _598  and  _599
REMARK  252  A    between atoms: _601  and  _603
REMARK  253  A    between atoms: _603  and  _604
REMARK  254  A    between atoms: _603  and  _606
REMARK  255  A    between atoms: _606  and  _607
REMARK  256  A    between atoms: _610  and  _612
REMARK  257  A    between atoms: _612  and  _613
REMARK  258  A    between atoms: _612  and  _615
REMARK  259  A    between atoms: _615  and  _616
REMARK  260  A    between atoms: _621  and  _623
REMARK  261  A    between atoms: _623  and  _624
REMARK  262  A    between atoms: _623  and  _626
REMARK  263  A    between atoms: _626  and  _627
REMARK  264  A    between atoms: _629  and  _631
REMARK  265  A    between atoms: _631  and  _632
REMARK  266  A    between atoms: _631  and  _634
REMARK  267  A    between atoms: _634  and  _635
REMARK  268  A    between atoms: _635  and  _636
REMARK  269  A    between atoms: _636  and  _637
REMARK  270  A    between atoms: _637  and  _638
REMARK  271  A    between atoms: _642  and  _644
REMARK  272  A    between atoms: _644  and  _645
REMARK  273  A    between atoms: _644  and  _647
REMARK  274  A    between atoms: _647  and  _648
REMARK  275  A    between atoms: _648  and  _649
REMARK  276  A    between atoms: _654  and  _656
REMARK  277  A    between atoms: _656  and  _657
REMARK  278  A    between atoms: _656  and  _659
REMARK  279  A    between atoms: _662  and  _664
REMARK  280  A    between atoms: _664  and  _665
REMARK  281  A    between atoms: _664  and  _667
REMARK  282  A    between atoms: _667  and  _668
REMARK  283  A    between atoms: _674  and  _676
REMARK  284  A    between atoms: _676  and  _677
REMARK  285  A    between atoms: _680  and  _682
REMARK  286  A    between atoms: _682  and  _683
REMARK  287  A    between atoms: _682  and  _685
REMARK  288  A    between atoms: _685  and  _686
REMARK  289  A    between atoms: _689  and  _691
REMARK  290  A    between atoms: _691  and  _692
REMARK  291  A    between atoms: _691  and  _694
REMARK  292  A    between atoms: _694  and  _695
REMARK  293  A    between atoms: _695  and  _696
REMARK  294  A    between atoms: _696  and  _697
REMARK  295  A    between atoms: _706  and  _708
REMARK  296  A    between atoms: _708  and  _709
REMARK  297  A    between atoms: _708  and  _711
REMARK  298  A    between atoms: _711  and  _712
REMARK  299  A    between atoms: _718  and  _720
REMARK  300  A    between atoms: _720  and  _721
REMARK  301  A    between atoms: _720  and  _723
REMARK  302  A    between atoms: _723  and  _724
REMARK  303  A    between atoms: _727  and  _729
REMARK  304  A    between atoms: _729  and  _730
REMARK  305  A    between atoms: _729  and  _732
REMARK  306  A    between atoms: _732  and  _733
REMARK  307  A    between atoms: _738  and  _739
REMARK  308  A    between atoms: _741  and  _743
REMARK  309  A    between atoms: _743  and  _744
REMARK  310  A    between atoms: _747  and  _749
REMARK  311  A    between atoms: _749  and  _750
REMARK  312  A    between atoms: _749  and  _752
REMARK  313  A    between atoms: _752  and  _753
REMARK  314  A    between atoms: _753  and  _754
REMARK  315  A    between atoms: _756  and  _758
REMARK  316  A    between atoms: _758  and  _759
REMARK  317  A    between atoms: _758  and  _761
REMARK  318  A    between atoms: _761  and  _762
REMARK  319  A    between atoms: _767  and  _769
REMARK  320  A    between atoms: _769  and  _770
REMARK  321  A    between atoms: _769  and  _772
REMARK  322  A    between atoms: _772  and  _773
REMARK  323  A    between atoms: _773  and  _774
REMARK  324  A    between atoms: _774  and  _775
REMARK  325  A    between atoms: _784  and  _786
REMARK  326  A    between atoms: _786  and  _787
REMARK  327  A    between atoms: _786  and  _789
REMARK  328  A    between atoms: _789  and  _790
REMARK  329  A    between atoms: _790  and  _791
REMARK  330  A    between atoms: _794  and  _796
REMARK  331  A    between atoms: _796  and  _797
REMARK  332  A    between atoms: _796  and  _799
REMARK  333  A    between atoms: _802  and  _804
REMARK  334  A    between atoms: _804  and  _805
REMARK  335  A    between atoms: _804  and  _807
REMARK  336  A    between atoms: _807  and  _808
REMARK                            x       y       z     vdW  Elec       q    Type
REMARK                         _______ _______ _______ _____ _____    ______ ____
ROOT
ATOM      1  CA  THR A   1      16.250  15.634  -3.779  0.00  0.00    +0.160 C 
ENDROOT
BRANCH   1   2
ATOM      2  N   THR A   1      16.263  14.573  -2.791  0.00  0.00    -0.237 NA
ATOM      3  H   THR A   1      15.359  14.200  -2.438  0.00  0.00    +0.142 HD
ENDBRANCH   1   2
BRANCH   1   4
ATOM      4  C   THR A   1      14.976  16.453  -3.589  0.00  0.00    +0.227 C 
ATOM      5  O   THR A   1      13.964  15.935  -3.153  0.00  0.00    -0.287 OA
ENDBRANCH   1   4
BRANCH   1   6
ATOM      6  CB  THR A   1      16.268  15.087  -5.208  0.00  0.00    +0.134 C 
ATOM      7  CG2 THR A   1      15.138  14.085  -5.428  0.00  0.00    +0.034 C 
BRANCH   6   8
ATOM      8  OG1 THR A   1      16.112  16.195  -6.105  0.00  0.00    -0.383 OA
ATOM      9  HG1 THR A   1      16.120  15.866  -7.039  0.00  0.00    +0.210 HD
ENDBRANCH   6   8
ENDBRANCH   1   6
TORSDOF 4
REMARK  Name = ../refined-set-2016/1i5r/1i5r_pocket.pdb
REMARK  336 active torsions:
REMARK  status: ('A' for Active; 'I' for Inactive)
REMARK    1  A    between atoms: _1  and  _3
REMARK    2  A    between atoms: _3  and  _4
REMARK    3  A    between atoms: _3  and  _6
REMARK    4  A    between atoms: _6  and  _7
REMARK    5  A    between atoms: _10  and  _12
REMARK    6  A    between atoms: _12  and  _13
REMARK    7  A    between atoms: _12  and  _15
REMARK    8  A    between atoms: _15  and  _16
REMARK    9  A    between atoms: _19  and  _21
REMARK   10  A    between atoms: _21  and  _22
REMARK   11  A    between atoms: _24  and  _26
REMARK   12  A    between atoms: _26  and  _27
REMARK   13  A    between atoms: _26  and  _29
REMARK   14  A    between atoms: _31  and  _33
REMARK   15  A    between atoms: _33  and  _34
REMARK   16  A    between atoms: _33  and  _36
REMARK   17  A    between atoms: _36  and  _37
REMARK   18  A    between atoms: _39  and  _41
REMARK   19  A    between atoms: _41  and  _42
REMARK   20  A    between atoms: _41  and  _44
REMARK   21  A    between atoms: _44  and  _45
REMARK   22  A    between atoms: _47  and  _49
REMARK   23  A    between atoms: _49  and  _50
REMARK   24  A    between atoms: _52  and  _54
REMARK   25  A    between atoms: _54  and  _55
REMARK   26  A    between atoms: _54  and  _57
REMARK   27  A    between atoms: _57  and  _58
REMARK   28  A    between atoms: _61  and  _63
REMARK   29  A    between atoms: _63  and  _64
REMARK   30  A    between atoms: _66  and  _68
REMARK   31  A    between atoms: _68  and  _69
REMARK   32  A    between atoms: _68  and  _71
REMARK   33  A    between atoms: _71  and  _72
REMARK   34  A    between atoms: _75  and  _77
REMARK   35  A    between atoms: _77  and  _78
REMARK   36  A    between atoms: _77  and  _80
REMARK   37  A    between atoms: _80  and  _81
REMARK   38  A    between atoms: _86  and  _88
REMARK   39  A    between atoms: _88  and  _89
REMARK   40  A    between atoms: _88  and  _91
REMARK   41  A    between atoms: _91  and  _92
REMARK   42  A    between atoms: _95  and  _97
REMARK   43  A    between atoms: _97  and  _98
REMARK   44  A    between atoms: _97  and  _100
REMARK   45  A    between atoms: _100  and  _101
REMARK   46  A    between atoms: _104  and  _106
REMARK   47  A    between atoms: _106  and  _107
REMARK   48  A    between atoms: _106  and  _109
REMARK   49  A    between atoms: _109  and  _110
REMARK   50  A    between atoms: _110  and  _111
REMARK   51  A    between atoms: _111  and  _112
REMARK   52  A    between atoms: _121  and  _123
REMARK   53  A    between atoms: _123  and  _124
REMARK   54  A    between atoms: _123  and  _126
REMARK   55  A    between atoms: _126  and  _127
REMARK   56  A    between atoms: _130  and  _132
REMARK   57  A    between atoms: _132  and  _133
REMARK   58  A    between atoms: _132  and  _135
REMARK   59  A    between atoms: _135  and  _136
REMARK   60  A    between atoms: _139  and  _141
REMARK   61  A    between atoms: _141  and  _142
REMARK   62  A    between atoms: _141  and  _144
REMARK   63  A    between atoms: _144  and  _145
REMARK   64  A    between atoms: _145  and  _146
REMARK   65  A    between atoms: _146  and  _147
REMARK   66  A    between atoms: _156  and  _158
REMARK   67  A    between atoms: _158  and  _159
REMARK   68  A    between atoms: _158  and  _161
REMARK   69  A    between atoms: _161  and  _162
REMARK   70  A    between atoms: _165  and  _167
REMARK   71  A    between atoms: _167  and  _168
REMARK   72  A    between atoms: _167  and  _170
REMARK   73  A    between atoms: _170  and  _171
REMARK   74  A    between atoms: _171  and  _172
REMARK   75  A    between atoms: _177  and  _179
REMARK   76  A    between atoms: _179  and  _180
REMARK   77  A    between atoms: _179  and  _182
REMARK   78  A    between atoms: _182  and  _183
REMARK   79  A    between atoms: _186  and  _188
REMARK   80  A    between atoms: _188  and  _189
REMARK   81  A    between atoms: _188  and  _191
REMARK   82  A    between atoms: _191  and  _192
REMARK   83  A    between atoms: _195  and  _197
REMARK   84  A    between atoms: _197  and  _198
REMARK   85  A    between atoms: _197  and  _200
REMARK   86  A    between atoms: _203  and  _205
REMARK   87  A    between atoms: _205  and  _206
REMARK   88  A    between atoms: _205  and  _208
REMARK   89  A    between atoms: _208  and  _209
REMARK   90  A    between atoms: _209  and  _210
REMARK   91  A    between atoms: _210  and  _211
REMARK   92  A    between atoms: _220  and  _222
REMARK   93  A    between atoms: _222  and  _223
REMARK   94  A    between atoms: _222  and  _225
REMARK   95  A    between atoms: _225  and  _226
REMARK   96  A    between atoms: _229  and  _231
REMARK   97  A    between atoms: _231  and  _232
REMARK   98  A    between atoms: _231  and  _234
REMARK   99  A    between atoms: _234  and  _235
REMARK  100  A    between atoms: _237  and  _239
REMARK  101  A    between atoms: _239  and  _240
REMARK  102  A    between atoms: _239  and  _242
REMARK  103  A    between atoms: _245  and  _247
REMARK  104  A    between atoms: _247  and  _248
REMARK  105  A    between atoms: _247  and  _250
REMARK  106  A    between atoms: _252  and  _254
REMARK  107  A    between atoms: _254  and  _255
REMARK  108  A    between atoms: _254  and  _257
REMARK  109  A    between atoms: _257  and  _258
REMARK  110  A    between atoms: _263  and  _265
REMARK  111  A    between atoms: _265  and  _266
REMARK  112  A    between atoms: _269  and  _271
REMARK  113  A    between atoms: _271  and  _272
REMARK  114  A    between atoms: _274  and  _276
REMARK  115  A    between atoms: _276  and  _277
REMARK  116  A    between atoms: _276  and  _279
REMARK  117  A    between atoms: _279  and  _280
REMARK  118  A    between atoms: _283  and  _285
REMARK  119  A    between atoms: _285  and  _286
REMARK  120  A    between atoms: _288  and  _290
REMARK  121  A    between atoms: _290  and  _291
REMARK  122  A    between atoms: _290  and  _293
REMARK  123  A    between atoms: _293  and  _294
REMARK  124  A    between atoms: _297  and  _299
REMARK  125  A    between atoms: _299  and  _300
REMARK  126  A    between atoms: _299  and  _302
REMARK  127  A    between atoms: _302  and  _303
REMARK  128  A    between atoms: _306  and  _308
REMARK  129  A    between atoms: _308  and  _309
REMARK  130  A    between atoms: _308  and  _311
REMARK  131  A    between atoms: _311  and  _312
REMARK  132  A    between atoms: _314  and  _316
REMARK  133  A    between atoms: _316  and  _317
REMARK  134  A    between atoms: _316  and  _319
REMARK  135  A    between atoms: _319  and  _320
REMARK  136  A    between atoms: _323  and  _325
REMARK  137  A    between atoms: _325  and  _326
REMARK  138  A    between atoms: _325  and  _328
REMARK  139  A    between atoms: _331  and  _333
REMARK  140  A    between atoms: _333  and  _334
REMARK  141  A    between atoms: _333  and  _336
REMARK  142  A    between atoms: _336  and  _337
REMARK  143  A    between atoms: _342  and  _344
REMARK  144  A    between atoms: _344  and  _345
REMARK  145  A    between atoms: _347  and  _349
REMARK  146  A    between atoms: _349  and  _350
REMARK  147  A    between atoms: _349  and  _352
REMARK  148  A    between atoms: _352  and  _353
REMARK  149  A    between atoms: _353  and  _354
REMARK  150  A    between atoms: _354  and  _355
REMARK  151  A    between atoms: _364  and  _366
REMARK  152  A    between atoms: _366  and  _367
REMARK  153  A    between atoms: _366  and  _369
REMARK  154  A    between atoms: _369  and  _370
REMARK  155  A    between atoms: _370  and  _371
REMARK  156  A    between atoms: _373  and  _375
REMARK  157  A    between atoms: _375  and  _376
REMARK  158  A    between atoms: _375  and  _378
REMARK  159  A    between atoms: _378  and  _379
REMARK  160  A    between atoms: _382  and  _384
REMARK  161  A    between atoms: _384  and  _385
REMARK  162  A    between atoms: _387  and  _389
REMARK  163  A    between atoms: _389  and  _390
REMARK  164  A    between atoms: _389  and  _392
REMARK  165  A    between atoms: _392  and  _393
REMARK  166  A    between atoms: _395  and  _397
REMARK  167  A    between atoms: _397  and  _398
REMARK  168  A    between atoms: _397  and  _400
REMARK  169  A    between atoms: _403  and  _405
REMARK  170  A    between atoms: _405  and  _406
REMARK  171  A    between atoms: _408  and  _410
REMARK  172  A    between atoms: _410  and  _411
REMARK  173  A    between atoms: _413  and  _415
REMARK  174  A    between atoms: _415  and  _416
REMARK  175  A    between atoms: _415  and  _418
REMARK  176  A    between atoms: _418  and  _419
REMARK  177  A    between atoms: _422  and  _424
REMARK  178  A    between atoms: _424  and  _425
REMARK  179  A    between atoms: _424  and  _427
REMARK  180  A    between atoms: _427  and  _428
REMARK  181  A    between atoms: _428  and  _429
REMARK  182  A    between atoms: _431  and  _433
REMARK  183  A    between atoms: _433  and  _434
REMARK  184  A    between atoms: _436  and  _438
REMARK  185  A    between atoms: _438  and  _439
REMARK  186  A    between atoms: _438  and  _441
REMARK  187  A    between atoms: _441  and  _442
REMARK  188  A    between atoms: _446  and  _447
REMARK  189  A    between atoms: _452  and  _454
REMARK  190  A    between atoms: _454  and  _455
REMARK  191  A    between atoms: _454  and  _457
REMARK  192  A    between atoms: _457  and  _458
REMARK  193  A    between atoms: _463  and  _465
REMARK  194  A    between atoms: _465  and  _466
REMARK  195  A    between atoms: _465  and  _468
REMARK  196  A    between atoms: _468  and  _469
REMARK  197  A    between atoms: _474  and  _475
REMARK  198  A    between atoms: _477  and  _479
REMARK  199  A    between atoms: _479  and  _480
REMARK  200  A    between atoms: _479  and  _482
REMARK  201  A    between atoms: _484  and  _486
REMARK  202  A    between atoms: _486  and  _487
REMARK  203  A    between atoms: _486  and  _489
REMARK  204  A    between atoms: _489  and  _490
REMARK  205  A    between atoms: _490  and  _491
REMARK  206  A    between atoms: _491  and  _492
REMARK  207  A    between atoms: _492  and  _493
REMARK  208  A    between atoms: _497  and  _499
REMARK  209  A    between atoms: _499  and  _500
REMARK  210  A    between atoms: _499  and  _502
REMARK  211  A    between atoms: _502  and  _503
REMARK  212  A    between atoms: _503  and  _504
REMARK  213  A    between atoms: _507  and  _509
REMARK  214  A    between atoms: _509  and  _510
REMARK  215  A    between atoms: _509  and  _512
REMARK  216  A    between atoms: _514  and  _516
REMARK  217  A    between atoms: _516  and  _517
REMARK  218  A    between atoms: _520  and  _521
REMARK  219  A    between atoms: _526  and  _528
REMARK  220  A    between atoms: _528  and  _529
REMARK  221  A    between atoms: _528  and  _531
REMARK  222  A    between atoms: _534  and  _536
REMARK  223  A    between atoms: _536  and  _537
REMARK  224  A    between atoms: _536  and  _539
REMARK  225  A    between atoms: _539  and  _540
REMARK  226  A    between atoms: _543  and  _545
REMARK  227  A    between atoms: _545  and  _546
REMARK  228  A    between atoms: _545  and  _548
REMARK  229  A    between atoms: _548  and  _549
REMARK  230  A    between atoms: _555  and  _557
REMARK  231  A    between atoms: _557  and  _558
REMARK  232  A    between atoms: _557  and  _560
REMARK  233  A    between atoms: _560  and  _561
REMARK  234  A    between atoms: _561  and  _562
REMARK  235  A    between atoms: _564  and  _566
REMARK  236  A    between atoms: _566  and  _567
REMARK  237  A    between atoms: _566  and  _569
REMARK  238  A    between atoms: _569  and  _570
REMARK  239  A    between atoms: _570  and  _571
REMARK  240  A    between atoms: _574  and  _576
REMARK  241  A    between atoms: _576  and  _577
REMARK  242  A    between atoms: _576  and  _579
REMARK  243  A    between atoms: _579  and  _580
REMARK  244  A    between atoms: _580  and  _581
REMARK  245  A    between atoms: _581  and  _582
REMARK  246  A    between atoms: _582  and  _583
REMARK  247  A    between atoms: _587  and  _589
REMARK  248  A    between atoms: _589  and  _590
REMARK  249  A    between atoms: _589  and  _592
REMARK  250  A    between atoms: _592  and  _593
REMARK  251  A    between atoms: _598  and  _599
REMARK  252  A    between atoms: _601  and  _603
REMARK  253  A    between atoms: _603  and  _604
REMARK  254  A    between atoms: _603  and  _606
REMARK  255  A    between atoms: _606  and  _607
REMARK  256  A    between atoms: _610  and  _612
REMARK  257  A    between atoms: _612  and  _613
REMARK  258  A    between atoms: _612  and  _615
REMARK  259  A    between atoms: _615  and  _616
REMARK  260  A    between atoms: _621  and  _623
REMARK  261  A    between atoms: _623  and  _624
REMARK  262  A    between atoms: _623  and  _626
REMARK  263  A    between atoms: _626  and  _627
REMARK  264  A    between atoms: _629  and  _631
REMARK  265  A    between atoms: _631  and  _632
REMARK  266  A    between atoms: _631  and  _634
REMARK  267  A    between atoms: _634  and  _635
REMARK  268  A    between atoms: _635  and  _636
REMARK  269  A    between atoms: _636  and  _637
REMARK  270  A    between atoms: _637  and  _638
REMARK  271  A    between atoms: _642  and  _644
REMARK  272  A    between atoms: _644  and  _645
REMARK  273  A    between atoms: _644  and  _647
REMARK  274  A    between atoms: _647  and  _648
REMARK  275  A    between atoms: _648  and  _649
REMARK  276  A    between atoms: _654  and  _656
REMARK  277  A    between atoms: _656  and  _657
REMARK  278  A    between atoms: _656  and  _659
REMARK  279  A    between atoms: _662  and  _664
REMARK  280  A    between atoms: _664  and  _665
REMARK  281  A    between atoms: _664  and  _667
REMARK  282  A    between atoms: _667  and  _668
REMARK  283  A    between atoms: _674  and  _676
REMARK  284  A    between atoms: _676  and  _677
REMARK  285  A    between atoms: _680  and  _682
REMARK  286  A    between atoms: _682  and  _683
REMARK  287  A    between atoms: _682  and  _685
REMARK  288  A    between atoms: _685  and  _686
REMARK  289  A    between atoms: _689  and  _691
REMARK  290  A    between atoms: _691  and  _692
REMARK  291  A    between atoms: _691  and  _694
REMARK  292  A    between atoms: _694  and  _695
REMARK  293  A    between atoms: _695  and  _696
REMARK  294  A    between atoms: _696  and  _697
REMARK  295  A    between atoms: _706  and  _708
REMARK  296  A    between atoms: _708  and  _709
REMARK  297  A    between atoms: _708  and  _711
REMARK  298  A    between atoms: _711  and  _712
REMARK  299  A    between atoms: _718  and  _720
REMARK  300  A    between atoms: _720  and  _721
REMARK  301  A    between atoms: _720  and  _723
REMARK  302  A    between atoms: _723  and  _724
REMARK  303  A    between atoms: _727  and  _729
REMARK  304  A    between atoms: _729  and  _730
REMARK  305  A    between atoms: _729  and  _732
REMARK  306  A    between atoms: _732  and  _733
REMARK  307  A    between atoms: _738  and  _739
REMARK  308  A    between atoms: _741  and  _743
REMARK  309  A    between atoms: _743  and  _744
REMARK  310  A    between atoms: _747  and  _749
REMARK  311  A    between atoms: _749  and  _750
REMARK  312  A    between atoms: _749  and  _752
REMARK  313  A    between atoms: _752  and  _753
REMARK  314  A    between atoms: _753  and  _754
REMARK  315  A    between atoms: _756  and  _758
REMARK  316  A    between atoms: _758  and  _759
REMARK  317  A    between atoms: _758  and  _761
REMARK  318  A    between atoms: _761  and  _762
REMARK  319  A    between atoms: _767  and  _769
REMARK  320  A    between atoms: _769  and  _770
REMARK  321  A    between atoms: _769  and  _772
REMARK  322  A    between atoms: _772  and  _773
REMARK  323  A    between atoms: _773  and  _774
REMARK  324  A    between atoms: _774  and  _775
REMARK  325  A    between atoms: _784  and  _786
REMARK  326  A    between atoms: _786  and  _787
REMARK  327  A    between atoms: _786  and  _789
REMARK  328  A    between atoms: _789  and  _790
REMARK  329  A    between atoms: _790  and  _791
REMARK  330  A    between atoms: _794  and  _796
REMARK  331  A    between atoms: _796  and  _797
REMARK  332  A    between atoms: _796  and  _799
REMARK  333  A    between atoms: _802  and  _804
REMARK  334  A    between atoms: _804  and  _805
REMARK  335  A    between atoms: _804  and  _807
REMARK  336  A    between atoms: _807  and  _808
REMARK                            x       y       z     vdW  Elec       q    Type
REMARK                         _______ _______ _______ _____ _____    ______ ____
ROOT
ATOM      1  CA  ARG A   1      13.561  18.196  -7.627  0.00  0.00    +0.145 C 
ENDROOT
BRANCH   1   2
ATOM      2  C   ARG A   1      12.070  18.004  -7.888  0.00  0.00    +0.238 C 
ATOM      3  N   PHE A   2      11.454  17.094  -7.147  0.00  0.00    -0.298 N 
ATOM      4  H   PHE A   2      11.997  16.601  -6.410  0.00  0.00    +0.150 HD
ATOM      5  O   ARG A   1      11.516  18.588  -8.818  0.00  0.00    -0.274 OA
BRANCH   3   6
ATOM      6  CA  PHE A   2      10.054  16.757  -7.321  0.00  0.00    +0.141 C 
BRANCH   6   7
ATOM      7  C   PHE A   2       9.101  17.443  -6.368  0.00  0.00    +0.227 C 
ATOM      8  O   PHE A   2       7.885  17.359  -6.580  0.00  0.00    -0.286 OA
ENDBRANCH   6   7
BRANCH   6   9
ATOM      9  CB  PHE A   2       9.872  15.231  -7.171  0.00  0.00    +0.054 C 
BRANCH   9  10
ATOM     10  CG  PHE A   2      10.796  14.505  -8.112  0.00  0.00    -0.020 A 
ATOM     11  CD2 PHE A   2      11.953  13.914  -7.626  0.00  0.00    -0.004 A 
ATOM     12  CE2 PHE A   2      12.814  13.267  -8.489  0.00  0.00    -0.000 A 
ATOM     13  CZ  PHE A   2      12.522  13.190  -9.838  0.00  0.00    -0.000 A 
ATOM     14  CE1 PHE A   2      11.385  13.800 -10.328  0.00  0.00    -0.000 A 
ATOM     15  CD1 PHE A   2      10.522  14.456  -9.467  0.00  0.00    -0.004 A 
ENDBRANCH   9  10
ENDBRANCH   6   9
ENDBRANCH   3   6
ENDBRANCH   1   2
BRANCH   1  16
ATOM     16  N   ARG A   1      13.928  18.107  -6.234  0.00  0.00    -0.238 NA
ATOM     17  H   ARG A   1      14.679  17.438  -5.969  0.00  0.00    +0.142 HD
ENDBRANCH   1  16
BRANCH   1  18
ATOM     18  CB  ARG A   1      14.319  17.138  -8.435  0.00  0.00    +0.030 C 
BRANCH  18  19
ATOM     19  CG  ARG A   1      14.053  17.219  -9.926  0.00  0.00    +0.045 C 
BRANCH  19  20
ATOM     20  CD  ARG A   1      14.559  15.958 -10.607  0.00  0.00    +0.174 C 
BRANCH  20  21
ATOM     21  NE  ARG A   1      14.243  15.925 -12.028  0.00  0.00    -0.265 N 
ATOM     22  HE  ARG A   1      13.539  15.230 -12.349  0.00  0.00    +0.259 HD
ATOM     23  CZ  ARG A   1      14.789  16.718 -12.944  0.00  0.00    +0.342 C 
ATOM     24  NH2 ARG A   1      15.694  17.627 -12.605  0.00  0.00    -0.292 N 
ATOM     25 HH21 ARG A   1      15.985  17.726 -11.611  0.00  0.00    +0.255 HD
ATOM     26 HH22 ARG A   1      16.113  18.241 -13.333  0.00  0.00    +0.255 HD
ATOM     27  NH1 ARG A   1      14.424  16.589 -14.213  0.00  0.00    -0.292 N 
ATOM     28 HH11 ARG A   1      13.718  15.874 -14.481  0.00  0.00    +0.255 HD
ATOM     29 HH12 ARG A   1      14.844  17.203 -14.940  0.00  0.00    +0.255 HD
ENDBRANCH  20  21
ENDBRANCH  19  20
ENDBRANCH  18  19
ENDBRANCH   1  18
TORSDOF 10
REMARK  Name = ../refined-set-2016/1i5r/1i5r_pocket.pdb
REMARK  336 active torsions:
REMARK  status: ('A' for Active; 'I' for Inactive)
REMARK    1  A    between atoms: _1  and  _3
REMARK    2  A    between atoms: _3  and  _4
REMARK    3  A    between atoms: _3  and  _6
REMARK    4  A    between atoms: _6  and  _7
REMARK    5  A    between atoms: _10  and  _12
REMARK    6  A    between atoms: _12  and  _13
REMARK    7  A    between atoms: _12  and  _15
REMARK    8  A    between atoms: _15  and  _16
REMARK    9  A    between atoms: _19  and  _21
REMARK   10  A    between atoms: _21  and  _22
REMARK   11  A    between atoms: _24  and  _26
REMARK   12  A    between atoms: _26  and  _27
REMARK   13  A    between atoms: _26  and  _29
REMARK   14  A    between atoms: _31  and  _33
REMARK   15  A    between atoms: _33  and  _34
REMARK   16  A    between atoms: _33  and  _36
REMARK   17  A    between atoms: _36  and  _37
REMARK   18  A    between atoms: _39  and  _41
REMARK   19  A    between atoms: _41  and  _42
REMARK   20  A    between atoms: _41  and  _44
REMARK   21  A    between atoms: _44  and  _45
REMARK   22  A    between atoms: _47  and  _49
REMARK   23  A    between atoms: _49  and  _50
REMARK   24  A    between atoms: _52  and  _54
REMARK   25  A    between atoms: _54  and  _55
REMARK   26  A    between atoms: _54  and  _57
REMARK   27  A    between atoms: _57  and  _58
REMARK   28  A    between atoms: _61  and  _63
REMARK   29  A    between atoms: _63  and  _64
REMARK   30  A    between atoms: _66  and  _68
REMARK   31  A    between atoms: _68  and  _69
REMARK   32  A    between atoms: _68  and  _71
REMARK   33  A    between atoms: _71  and  _72
REMARK   34  A    between atoms: _75  and  _77
REMARK   35  A    between atoms: _77  and  _78
REMARK   36  A    between atoms: _77  and  _80
REMARK   37  A    between atoms: _80  and  _81
REMARK   38  A    between atoms: _86  and  _88
REMARK   39  A    between atoms: _88  and  _89
REMARK   40  A    between atoms: _88  and  _91
REMARK   41  A    between atoms: _91  and  _92
REMARK   42  A    between atoms: _95  and  _97
REMARK   43  A    between atoms: _97  and  _98
REMARK   44  A    between atoms: _97  and  _100
REMARK   45  A    between atoms: _100  and  _101
REMARK   46  A    between atoms: _104  and  _106
REMARK   47  A    between atoms: _106  and  _107
REMARK   48  A    between atoms: _106  and  _109
REMARK   49  A    between atoms: _109  and  _110
REMARK   50  A    between atoms: _110  and  _111
REMARK   51  A    between atoms: _111  and  _112
REMARK   52  A    between atoms: _121  and  _123
REMARK   53  A    between atoms: _123  and  _124
REMARK   54  A    between atoms: _123  and  _126
REMARK   55  A    between atoms: _126  and  _127
REMARK   56  A    between atoms: _130  and  _132
REMARK   57  A    between atoms: _132  and  _133
REMARK   58  A    between atoms: _132  and  _135
REMARK   59  A    between atoms: _135  and  _136
REMARK   60  A    between atoms: _139  and  _141
REMARK   61  A    between atoms: _141  and  _142
REMARK   62  A    between atoms: _141  and  _144
REMARK   63  A    between atoms: _144  and  _145
REMARK   64  A    between atoms: _145  and  _146
REMARK   65  A    between atoms: _146  and  _147
REMARK   66  A    between atoms: _156  and  _158
REMARK   67  A    between atoms: _158  and  _159
REMARK   68  A    between atoms: _158  and  _161
REMARK   69  A    between atoms: _161  and  _162
REMARK   70  A    between atoms: _165  and  _167
REMARK   71  A    between atoms: _167  and  _168
REMARK   72  A    between atoms: _167  and  _170
REMARK   73  A    between atoms: _170  and  _171
REMARK   74  A    between atoms: _171  and  _172
REMARK   75  A    between atoms: _177  and  _179
REMARK   76  A    between atoms: _179  and  _180
REMARK   77  A    between atoms: _179  and  _182
REMARK   78  A    between atoms: _182  and  _183
REMARK   79  A    between atoms: _186  and  _188
REMARK   80  A    between atoms: _188  and  _189
REMARK   81  A    between atoms: _188  and  _191
REMARK   82  A    between atoms: _191  and  _192
REMARK   83  A    between atoms: _195  and  _197
REMARK   84  A    between atoms: _197  and  _198
REMARK   85  A    between atoms: _197  and  _200
REMARK   86  A    between atoms: _203  and  _205
REMARK   87  A    between atoms: _205  and  _206
REMARK   88  A    between atoms: _205  and  _208
REMARK   89  A    between atoms: _208  and  _209
REMARK   90  A    between atoms: _209  and  _210
REMARK   91  A    between atoms: _210  and  _211
REMARK   92  A    between atoms: _220  and  _222
REMARK   93  A    between atoms: _222  and  _223
REMARK   94  A    between atoms: _222  and  _225
REMARK   95  A    between atoms: _225  and  _226
REMARK   96  A    between atoms: _229  and  _231
REMARK   97  A    between atoms: _231  and  _232
REMARK   98  A    between atoms: _231  and  _234
REMARK   99  A    between atoms: _234  and  _235
REMARK  100  A    between atoms: _237  and  _239
REMARK  101  A    between atoms: _239  and  _240
REMARK  102  A    between atoms: _239  and  _242
REMARK  103  A    between atoms: _245  and  _247
REMARK  104  A    between atoms: _247  and  _248
REMARK  105  A    between atoms: _247  and  _250
REMARK  106  A    between atoms: _252  and  _254
REMARK  107  A    between atoms: _254  and  _255
REMARK  108  A    between atoms: _254  and  _257
REMARK  109  A    between atoms: _257  and  _258
REMARK  110  A    between atoms: _263  and  _265
REMARK  111  A    between atoms: _265  and  _266
REMARK  112  A    between atoms: _269  and  _271
REMARK  113  A    between atoms: _271  and  _272
REMARK  114  A    between atoms: _274  and  _276
REMARK  115  A    between atoms: _276  and  _277
REMARK  116  A    between atoms: _276  and  _279
REMARK  117  A    between atoms: _279  and  _280
REMARK  118  A    between atoms: _283  and  _285
REMARK  119  A    between atoms: _285  and  _286
REMARK  120  A    between atoms: _288  and  _290
REMARK  121  A    between atoms: _290  and  _291
REMARK  122  A    between atoms: _290  and  _293
REMARK  123  A    between atoms: _293  and  _294
REMARK  124  A    between atoms: _297  and  _299
REMARK  125  A    between atoms: _299  and  _300
REMARK  126  A    between atoms: _299  and  _302
REMARK  127  A    between atoms: _302  and  _303
REMARK  128  A    between atoms: _306  and  _308
REMARK  129  A    between atoms: _308  and  _309
REMARK  130  A    between atoms: _308  and  _311
REMARK  131  A    between atoms: _311  and  _312
REMARK  132  A    between atoms: _314  and  _316
REMARK  133  A    between atoms: _316  and  _317
REMARK  134  A    between atoms: _316  and  _319
REMARK  135  A    between atoms: _319  and  _320
REMARK  136  A    between atoms: _323  and  _325
REMARK  137  A    between atoms: _325  and  _326
REMARK  138  A    between atoms: _325  and  _328
REMARK  139  A    between atoms: _331  and  _333
REMARK  140  A    between atoms: _333  and  _334
REMARK  141  A    between atoms: _333  and  _336
REMARK  142  A    between atoms: _336  and  _337
REMARK  143  A    between atoms: _342  and  _344
REMARK  144  A    between atoms: _344  and  _345
REMARK  145  A    between atoms: _347  and  _349
REMARK  146  A    between atoms: _349  and  _350
REMARK  147  A    between atoms: _349  and  _352
REMARK  148  A    between atoms: _352  and  _353
REMARK  149  A    between atoms: _353  and  _354
REMARK  150  A    between atoms: _354  and  _355
REMARK  151  A    between atoms: _364  and  _366
REMARK  152  A    between atoms: _366  and  _367
REMARK  153  A    between atoms: _366  and  _369
REMARK  154  A    between atoms: _369  and  _370
REMARK  155  A    between atoms: _370  and  _371
REMARK  156  A    between atoms: _373  and  _375
REMARK  157  A    between atoms: _375  and  _376
REMARK  158  A    between atoms: _375  and  _378
REMARK  159  A    between atoms: _378  and  _379
REMARK  160  A    between atoms: _382  and  _384
REMARK  161  A    between atoms: _384  and  _385
REMARK  162  A    between atoms: _387  and  _389
REMARK  163  A    between atoms: _389  and  _390
REMARK  164  A    between atoms: _389  and  _392
REMARK  165  A    between atoms: _392  and  _393
REMARK  166  A    between atoms: _395  and  _397
REMARK  167  A    between atoms: _397  and  _398
REMARK  168  A    between atoms: _397  and  _400
REMARK  169  A    between atoms: _403  and  _405
REMARK  170  A    between atoms: _405  and  _406
REMARK  171  A    between atoms: _408  and  _410
REMARK  172  A    between atoms: _410  and  _411
REMARK  173  A    between atoms: _413  and  _415
REMARK  174  A    between atoms: _415  and  _416
REMARK  175  A    between atoms: _415  and  _418
REMARK  176  A    between atoms: _418  and  _419
REMARK  177  A    between atoms: _422  and  _424
REMARK  178  A    between atoms: _424  and  _425
REMARK  179  A    between atoms: _424  and  _427
REMARK  180  A    between atoms: _427  and  _428
REMARK  181  A    between atoms: _428  and  _429
REMARK  182  A    between atoms: _431  and  _433
REMARK  183  A    between atoms: _433  and  _434
REMARK  184  A    between atoms: _436  and  _438
REMARK  185  A    between atoms: _438  and  _439
REMARK  186  A    between atoms: _438  and  _441
REMARK  187  A    between atoms: _441  and  _442
REMARK  188  A    between atoms: _446  and  _447
REMARK  189  A    between atoms: _452  and  _454
REMARK  190  A    between atoms: _454  and  _455
REMARK  191  A    between atoms: _454  and  _457
REMARK  192  A    between atoms: _457  and  _458
REMARK  193  A    between atoms: _463  and  _465
REMARK  194  A    between atoms: _465  and  _466
REMARK  195  A    between atoms: _465  and  _468
REMARK  196  A    between atoms: _468  and  _469
REMARK  197  A    between atoms: _474  and  _475
REMARK  198  A    between atoms: _477  and  _479
REMARK  199  A    between atoms: _479  and  _480
REMARK  200  A    between atoms: _479  and  _482
REMARK  201  A    between atoms: _484  and  _486
REMARK  202  A    between atoms: _486  and  _487
REMARK  203  A    between atoms: _486  and  _489
REMARK  204  A    between atoms: _489  and  _490
REMARK  205  A    between atoms: _490  and  _491
REMARK  206  A    between atoms: _491  and  _492
REMARK  207  A    between atoms: _492  and  _493
REMARK  208  A    between atoms: _497  and  _499
REMARK  209  A    between atoms: _499  and  _500
REMARK  210  A    between atoms: _499  and  _502
REMARK  211  A    between atoms: _502  and  _503
REMARK  212  A    between atoms: _503  and  _504
REMARK  213  A    between atoms: _507  and  _509
REMARK  214  A    between atoms: _509  and  _510
REMARK  215  A    between atoms: _509  and  _512
REMARK  216  A    between atoms: _514  and  _516
REMARK  217  A    between atoms: _516  and  _517
REMARK  218  A    between atoms: _520  and  _521
REMARK  219  A    between atoms: _526  and  _528
REMARK  220  A    between atoms: _528  and  _529
REMARK  221  A    between atoms: _528  and  _531
REMARK  222  A    between atoms: _534  and  _536
REMARK  223  A    between atoms: _536  and  _537
REMARK  224  A    between atoms: _536  and  _539
REMARK  225  A    between atoms: _539  and  _540
REMARK  226  A    between atoms: _543  and  _545
REMARK  227  A    between atoms: _545  and  _546
REMARK  228  A    between atoms: _545  and  _548
REMARK  229  A    between atoms: _548  and  _549
REMARK  230  A    between atoms: _555  and  _557
REMARK  231  A    between atoms: _557  and  _558
REMARK  232  A    between atoms: _557  and  _560
REMARK  233  A    between atoms: _560  and  _561
REMARK  234  A    between atoms: _561  and  _562
REMARK  235  A    between atoms: _564  and  _566
REMARK  236  A    between atoms: _566  and  _567
REMARK  237  A    between atoms: _566  and  _569
REMARK  238  A    between atoms: _569  and  _570
REMARK  239  A    between atoms: _570  and  _571
REMARK  240  A    between atoms: _574  and  _576
REMARK  241  A    between atoms: _576  and  _577
REMARK  242  A    between atoms: _576  and  _579
REMARK  243  A    between atoms: _579  and  _580
REMARK  244  A    between atoms: _580  and  _581
REMARK  245  A    between atoms: _581  and  _582
REMARK  246  A    between atoms: _582  and  _583
REMARK  247  A    between atoms: _587  and  _589
REMARK  248  A    between atoms: _589  and  _590
REMARK  249  A    between atoms: _589  and  _592
REMARK  250  A    between atoms: _592  and  _593
REMARK  251  A    between atoms: _598  and  _599
REMARK  252  A    between atoms: _601  and  _603
REMARK  253  A    between atoms: _603  and  _604
REMARK  254  A    between atoms: _603  and  _606
REMARK  255  A    between atoms: _606  and  _607
REMARK  256  A    between atoms: _610  and  _612
REMARK  257  A    between atoms: _612  and  _613
REMARK  258  A    between atoms: _612  and  _615
REMARK  259  A    between atoms: _615  and  _616
REMARK  260  A    between atoms: _621  and  _623
REMARK  261  A    between atoms: _623  and  _624
REMARK  262  A    between atoms: _623  and  _626
REMARK  263  A    between atoms: _626  and  _627
REMARK  264  A    between atoms: _629  and  _631
REMARK  265  A    between atoms: _631  and  _632
REMARK  266  A    between atoms: _631  and  _634
REMARK  267  A    between atoms: _634  and  _635
REMARK  268  A    between atoms: _635  and  _636
REMARK  269  A    between atoms: _636  and  _637
REMARK  270  A    between atoms: _637  and  _638
REMARK  271  A    between atoms: _642  and  _644
REMARK  272  A    between atoms: _644  and  _645
REMARK  273  A    between atoms: _644  and  _647
REMARK  274  A    between atoms: _647  and  _648
REMARK  275  A    between atoms: _648  and  _649
REMARK  276  A    between atoms: _654  and  _656
REMARK  277  A    between atoms: _656  and  _657
REMARK  278  A    between atoms: _656  and  _659
REMARK  279  A    between atoms: _662  and  _664
REMARK  280  A    between atoms: _664  and  _665
REMARK  281  A    between atoms: _664  and  _667
REMARK  282  A    between atoms: _667  and  _668
REMARK  283  A    between atoms: _674  and  _676
REMARK  284  A    between atoms: _676  and  _677
REMARK  285  A    between atoms: _680  and  _682
REMARK  286  A    between atoms: _682  and  _683
REMARK  287  A    between atoms: _682  and  _685
REMARK  288  A    between atoms: _685  and  _686
REMARK  289  A    between atoms: _689  and  _691
REMARK  290  A    between atoms: _691  and  _692
REMARK  291  A    between atoms: _691  and  _694
REMARK  292  A    between atoms: _694  and  _695
REMARK  293  A    between atoms: _695  and  _696
REMARK  294  A    between atoms: _696  and  _697
REMARK  295  A    between atoms: _706  and  _708
REMARK  296  A    between atoms: _708  and  _709
REMARK  297  A    between atoms: _708  and  _711
REMARK  298  A    between atoms: _711  and  _712
REMARK  299  A    between atoms: _718  and  _720
REMARK  300  A    between atoms: _720  and  _721
REMARK  301  A    between atoms: _720  and  _723
REMARK  302  A    between atoms: _723  and  _724
REMARK  303  A    between atoms: _727  and  _729
REMARK  304  A    between atoms: _729  and  _730
REMARK  305  A    between atoms: _729  and  _732
REMARK  306  A    between atoms: _732  and  _733
REMARK  307  A    between atoms: _738  and  _739
REMARK  308  A    between atoms: _741  and  _743
REMARK  309  A    between atoms: _743  and  _744
REMARK  310  A    between atoms: _747  and  _749
REMARK  311  A    between atoms: _749  and  _750
REMARK  312  A    between atoms: _749  and  _752
REMARK  313  A    between atoms: _752  and  _753
REMARK  314  A    between atoms: _753  and  _754
REMARK  315  A    between atoms: _756  and  _758
REMARK  316  A    between atoms: _758  and  _759
REMARK  317  A    between atoms: _758  and  _761
REMARK  318  A    between atoms: _761  and  _762
REMARK  319  A    between atoms: _767  and  _769
REMARK  320  A    between atoms: _769  and  _770
REMARK  321  A    between atoms: _769  and  _772
REMARK  322  A    between atoms: _772  and  _773
REMARK  323  A    between atoms: _773  and  _774
REMARK  324  A    between atoms: _774  and  _775
REMARK  325  A    between atoms: _784  and  _786
REMARK  326  A    between atoms: _786  and  _787
REMARK  327  A    between atoms: _786  and  _789
REMARK  328  A    between atoms: _789  and  _790
REMARK  329  A    between atoms: _790  and  _791
REMARK  330  A    between atoms: _794  and  _796
REMARK  331  A    between atoms: _796  and  _797
REMARK  332  A    between atoms: _796  and  _799
REMARK  333  A    between atoms: _802  and  _804
REMARK  334  A    between atoms: _804  and  _805
REMARK  335  A    between atoms: _804  and  _807
REMARK  336  A    between atoms: _807  and  _808
REMARK                            x       y       z     vdW  Elec       q    Type
REMARK                         _______ _______ _______ _____ _____    ______ ____
ROOT
ATOM      1  CA  LEU A   1       5.138  18.401  -8.673  0.00  0.00    +0.133 C 
ENDROOT
BRANCH   1   2
ATOM      2  N   LEU A   1       6.196  19.297  -8.218  0.00  0.00    -0.239 NA
ATOM      3  H   LEU A   1       7.184  19.060  -8.441  0.00  0.00    +0.142 HD
ENDBRANCH   1   2
BRANCH   1   4
ATOM      4  C   LEU A   1       4.318  17.931  -7.470  0.00  0.00    +0.224 C 
ATOM      5  O   LEU A   1       3.099  17.802  -7.523  0.00  0.00    -0.287 OA
ENDBRANCH   1   4
BRANCH   1   6
ATOM      6  CB  LEU A   1       5.662  17.172  -9.403  0.00  0.00    +0.025 C 
BRANCH   6   7
ATOM      7  CG  LEU A   1       6.101  17.307 -10.857  0.00  0.00    +0.002 C 
ATOM      8  CD2 LEU A   1       6.900  16.077 -11.273  0.00  0.00    +0.000 C 
ATOM      9  CD1 LEU A   1       4.893  17.471 -11.772  0.00  0.00    +0.000 C 
ENDBRANCH   6   7
ENDBRANCH   1   6
TORSDOF 4
REMARK  Name = ../refined-set-2016/1i5r/1i5r_pocket.pdb
REMARK  336 active torsions:
REMARK  status: ('A' for Active; 'I' for Inactive)
REMARK    1  A    between atoms: _1  and  _3
REMARK    2  A    between atoms: _3  and  _4
REMARK    3  A    between atoms: _3  and  _6
REMARK    4  A    between atoms: _6  and  _7
REMARK    5  A    between atoms: _10  and  _12
REMARK    6  A    between atoms: _12  and  _13
REMARK    7  A    between atoms: _12  and  _15
REMARK    8  A    between atoms: _15  and  _16
REMARK    9  A    between atoms: _19  and  _21
REMARK   10  A    between atoms: _21  and  _22
REMARK   11  A    between atoms: _24  and  _26
REMARK   12  A    between atoms: _26  and  _27
REMARK   13  A    between atoms: _26  and  _29
REMARK   14  A    between atoms: _31  and  _33
REMARK   15  A    between atoms: _33  and  _34
REMARK   16  A    between atoms: _33  and  _36
REMARK   17  A    between atoms: _36  and  _37
REMARK   18  A    between atoms: _39  and  _41
REMARK   19  A    between atoms: _41  and  _42
REMARK   20  A    between atoms: _41  and  _44
REMARK   21  A    between atoms: _44  and  _45
REMARK   22  A    between atoms: _47  and  _49
REMARK   23  A    between atoms: _49  and  _50
REMARK   24  A    between atoms: _52  and  _54
REMARK   25  A    between atoms: _54  and  _55
REMARK   26  A    between atoms: _54  and  _57
REMARK   27  A    between atoms: _57  and  _58
REMARK   28  A    between atoms: _61  and  _63
REMARK   29  A    between atoms: _63  and  _64
REMARK   30  A    between atoms: _66  and  _68
REMARK   31  A    between atoms: _68  and  _69
REMARK   32  A    between atoms: _68  and  _71
REMARK   33  A    between atoms: _71  and  _72
REMARK   34  A    between atoms: _75  and  _77
REMARK   35  A    between atoms: _77  and  _78
REMARK   36  A    between atoms: _77  and  _80
REMARK   37  A    between atoms: _80  and  _81
REMARK   38  A    between atoms: _86  and  _88
REMARK   39  A    between atoms: _88  and  _89
REMARK   40  A    between atoms: _88  and  _91
REMARK   41  A    between atoms: _91  and  _92
REMARK   42  A    between atoms: _95  and  _97
REMARK   43  A    between atoms: _97  and  _98
REMARK   44  A    between atoms: _97  and  _100
REMARK   45  A    between atoms: _100  and  _101
REMARK   46  A    between atoms: _104  and  _106
REMARK   47  A    between atoms: _106  and  _107
REMARK   48  A    between atoms: _106  and  _109
REMARK   49  A    between atoms: _109  and  _110
REMARK   50  A    between atoms: _110  and  _111
REMARK   51  A    between atoms: _111  and  _112
REMARK   52  A    between atoms: _121  and  _123
REMARK   53  A    between atoms: _123  and  _124
REMARK   54  A    between atoms: _123  and  _126
REMARK   55  A    between atoms: _126  and  _127
REMARK   56  A    between atoms: _130  and  _132
REMARK   57  A    between atoms: _132  and  _133
REMARK   58  A    between atoms: _132  and  _135
REMARK   59  A    between atoms: _135  and  _136
REMARK   60  A    between atoms: _139  and  _141
REMARK   61  A    between atoms: _141  and  _142
REMARK   62  A    between atoms: _141  and  _144
REMARK   63  A    between atoms: _144  and  _145
REMARK   64  A    between atoms: _145  and  _146
REMARK   65  A    between atoms: _146  and  _147
REMARK   66  A    between atoms: _156  and  _158
REMARK   67  A    between atoms: _158  and  _159
REMARK   68  A    between atoms: _158  and  _161
REMARK   69  A    between atoms: _161  and  _162
REMARK   70  A    between atoms: _165  and  _167
REMARK   71  A    between atoms: _167  and  _168
REMARK   72  A    between atoms: _167  and  _170
REMARK   73  A    between atoms: _170  and  _171
REMARK   74  A    between atoms: _171  and  _172
REMARK   75  A    between atoms: _177  and  _179
REMARK   76  A    between atoms: _179  and  _180
REMARK   77  A    between atoms: _179  and  _182
REMARK   78  A    between atoms: _182  and  _183
REMARK   79  A    between atoms: _186  and  _188
REMARK   80  A    between atoms: _188  and  _189
REMARK   81  A    between atoms: _188  and  _191
REMARK   82  A    between atoms: _191  and  _192
REMARK   83  A    between atoms: _195  and  _197
REMARK   84  A    between atoms: _197  and  _198
REMARK   85  A    between atoms: _197  and  _200
REMARK   86  A    between atoms: _203  and  _205
REMARK   87  A    between atoms: _205  and  _206
REMARK   88  A    between atoms: _205  and  _208
REMARK   89  A    between atoms: _208  and  _209
REMARK   90  A    between atoms: _209  and  _210
REMARK   91  A    between atoms: _210  and  _211
REMARK   92  A    between atoms: _220  and  _222
REMARK   93  A    between atoms: _222  and  _223
REMARK   94  A    between atoms: _222  and  _225
REMARK   95  A    between atoms: _225  and  _226
REMARK   96  A    between atoms: _229  and  _231
REMARK   97  A    between atoms: _231  and  _232
REMARK   98  A    between atoms: _231  and  _234
REMARK   99  A    between atoms: _234  and  _235
REMARK  100  A    between atoms: _237  and  _239
REMARK  101  A    between atoms: _239  and  _240
REMARK  102  A    between atoms: _239  and  _242
REMARK  103  A    between atoms: _245  and  _247
REMARK  104  A    between atoms: _247  and  _248
REMARK  105  A    between atoms: _247  and  _250
REMARK  106  A    between atoms: _252  and  _254
REMARK  107  A    between atoms: _254  and  _255
REMARK  108  A    between atoms: _254  and  _257
REMARK  109  A    between atoms: _257  and  _258
REMARK  110  A    between atoms: _263  and  _265
REMARK  111  A    between atoms: _265  and  _266
REMARK  112  A    between atoms: _269  and  _271
REMARK  113  A    between atoms: _271  and  _272
REMARK  114  A    between atoms: _274  and  _276
REMARK  115  A    between atoms: _276  and  _277
REMARK  116  A    between atoms: _276  and  _279
REMARK  117  A    between atoms: _279  and  _280
REMARK  118  A    between atoms: _283  and  _285
REMARK  119  A    between atoms: _285  and  _286
REMARK  120  A    between atoms: _288  and  _290
REMARK  121  A    between atoms: _290  and  _291
REMARK  122  A    between atoms: _290  and  _293
REMARK  123  A    between atoms: _293  and  _294
REMARK  124  A    between atoms: _297  and  _299
REMARK  125  A    between atoms: _299  and  _300
REMARK  126  A    between atoms: _299  and  _302
REMARK  127  A    between atoms: _302  and  _303
REMARK  128  A    between atoms: _306  and  _308
REMARK  129  A    between atoms: _308  and  _309
REMARK  130  A    between atoms: _308  and  _311
REMARK  131  A    between atoms: _311  and  _312
REMARK  132  A    between atoms: _314  and  _316
REMARK  133  A    between atoms: _316  and  _317
REMARK  134  A    between atoms: _316  and  _319
REMARK  135  A    between atoms: _319  and  _320
REMARK  136  A    between atoms: _323  and  _325
REMARK  137  A    between atoms: _325  and  _326
REMARK  138  A    between atoms: _325  and  _328
REMARK  139  A    between atoms: _331  and  _333
REMARK  140  A    between atoms: _333  and  _334
REMARK  141  A    between atoms: _333  and  _336
REMARK  142  A    between atoms: _336  and  _337
REMARK  143  A    between atoms: _342  and  _344
REMARK  144  A    between atoms: _344  and  _345
REMARK  145  A    between atoms: _347  and  _349
REMARK  146  A    between atoms: _349  and  _350
REMARK  147  A    between atoms: _349  and  _352
REMARK  148  A    between atoms: _352  and  _353
REMARK  149  A    between atoms: _353  and  _354
REMARK  150  A    between atoms: _354  and  _355
REMARK  151  A    between atoms: _364  and  _366
REMARK  152  A    between atoms: _366  and  _367
REMARK  153  A    between atoms: _366  and  _369
REMARK  154  A    between atoms: _369  and  _370
REMARK  155  A    between atoms: _370  and  _371
REMARK  156  A    between atoms: _373  and  _375
REMARK  157  A    between atoms: _375  and  _376
REMARK  158  A    between atoms: _375  and  _378
REMARK  159  A    between atoms: _378  and  _379
REMARK  160  A    between atoms: _382  and  _384
REMARK  161  A    between atoms: _384  and  _385
REMARK  162  A    between atoms: _387  and  _389
REMARK  163  A    between atoms: _389  and  _390
REMARK  164  A    between atoms: _389  and  _392
REMARK  165  A    between atoms: _392  and  _393
REMARK  166  A    between atoms: _395  and  _397
REMARK  167  A    between atoms: _397  and  _398
REMARK  168  A    between atoms: _397  and  _400
REMARK  169  A    between atoms: _403  and  _405
REMARK  170  A    between atoms: _405  and  _406
REMARK  171  A    between atoms: _408  and  _410
REMARK  172  A    between atoms: _410  and  _411
REMARK  173  A    between atoms: _413  and  _415
REMARK  174  A    between atoms: _415  and  _416
REMARK  175  A    between atoms: _415  and  _418
REMARK  176  A    between atoms: _418  and  _419
REMARK  177  A    between atoms: _422  and  _424
REMARK  178  A    between atoms: _424  and  _425
REMARK  179  A    between atoms: _424  and  _427
REMARK  180  A    between atoms: _427  and  _428
REMARK  181  A    between atoms: _428  and  _429
REMARK  182  A    between atoms: _431  and  _433
REMARK  183  A    between atoms: _433  and  _434
REMARK  184  A    between atoms: _436  and  _438
REMARK  185  A    between atoms: _438  and  _439
REMARK  186  A    between atoms: _438  and  _441
REMARK  187  A    between atoms: _441  and  _442
REMARK  188  A    between atoms: _446  and  _447
REMARK  189  A    between atoms: _452  and  _454
REMARK  190  A    between atoms: _454  and  _455
REMARK  191  A    between atoms: _454  and  _457
REMARK  192  A    between atoms: _457  and  _458
REMARK  193  A    between atoms: _463  and  _465
REMARK  194  A    between atoms: _465  and  _466
REMARK  195  A    between atoms: _465  and  _468
REMARK  196  A    between atoms: _468  and  _469
REMARK  197  A    between atoms: _474  and  _475
REMARK  198  A    between atoms: _477  and  _479
REMARK  199  A    between atoms: _479  and  _480
REMARK  200  A    between atoms: _479  and  _482
REMARK  201  A    between atoms: _484  and  _486
REMARK  202  A    between atoms: _486  and  _487
REMARK  203  A    between atoms: _486  and  _489
REMARK  204  A    between atoms: _489  and  _490
REMARK  205  A    between atoms: _490  and  _491
REMARK  206  A    between atoms: _491  and  _492
REMARK  207  A    between atoms: _492  and  _493
REMARK  208  A    between atoms: _497  and  _499
REMARK  209  A    between atoms: _499  and  _500
REMARK  210  A    between atoms: _499  and  _502
REMARK  211  A    between atoms: _502  and  _503
REMARK  212  A    between atoms: _503  and  _504
REMARK  213  A    between atoms: _507  and  _509
REMARK  214  A    between atoms: _509  and  _510
REMARK  215  A    between atoms: _509  and  _512
REMARK  216  A    between atoms: _514  and  _516
REMARK  217  A    between atoms: _516  and  _517
REMARK  218  A    between atoms: _520  and  _521
REMARK  219  A    between atoms: _526  and  _528
REMARK  220  A    between atoms: _528  and  _529
REMARK  221  A    between atoms: _528  and  _531
REMARK  222  A    between atoms: _534  and  _536
REMARK  223  A    between atoms: _536  and  _537
REMARK  224  A    between atoms: _536  and  _539
REMARK  225  A    between atoms: _539  and  _540
REMARK  226  A    between atoms: _543  and  _545
REMARK  227  A    between atoms: _545  and  _546
REMARK  228  A    between atoms: _545  and  _548
REMARK  229  A    between atoms: _548  and  _549
REMARK  230  A    between atoms: _555  and  _557
REMARK  231  A    between atoms: _557  and  _558
REMARK  232  A    between atoms: _557  and  _560
REMARK  233  A    between atoms: _560  and  _561
REMARK  234  A    between atoms: _561  and  _562
REMARK  235  A    between atoms: _564  and  _566
REMARK  236  A    between atoms: _566  and  _567
REMARK  237  A    between atoms: _566  and  _569
REMARK  238  A    between atoms: _569  and  _570
REMARK  239  A    between atoms: _570  and  _571
REMARK  240  A    between atoms: _574  and  _576
REMARK  241  A    between atoms: _576  and  _577
REMARK  242  A    between atoms: _576  and  _579
REMARK  243  A    between atoms: _579  and  _580
REMARK  244  A    between atoms: _580  and  _581
REMARK  245  A    between atoms: _581  and  _582
REMARK  246  A    between atoms: _582  and  _583
REMARK  247  A    between atoms: _587  and  _589
REMARK  248  A    between atoms: _589  and  _590
REMARK  249  A    between atoms: _589  and  _592
REMARK  250  A    between atoms: _592  and  _593
REMARK  251  A    between atoms: _598  and  _599
REMARK  252  A    between atoms: _601  and  _603
REMARK  253  A    between atoms: _603  and  _604
REMARK  254  A    between atoms: _603  and  _606
REMARK  255  A    between atoms: _606  and  _607
REMARK  256  A    between atoms: _610  and  _612
REMARK  257  A    between atoms: _612  and  _613
REMARK  258  A    between atoms: _612  and  _615
REMARK  259  A    between atoms: _615  and  _616
REMARK  260  A    between atoms: _621  and  _623
REMARK  261  A    between atoms: _623  and  _624
REMARK  262  A    between atoms: _623  and  _626
REMARK  263  A    between atoms: _626  and  _627
REMARK  264  A    between atoms: _629  and  _631
REMARK  265  A    between atoms: _631  and  _632
REMARK  266  A    between atoms: _631  and  _634
REMARK  267  A    between atoms: _634  and  _635
REMARK  268  A    between atoms: _635  and  _636
REMARK  269  A    between atoms: _636  and  _637
REMARK  270  A    between atoms: _637  and  _638
REMARK  271  A    between atoms: _642  and  _644
REMARK  272  A    between atoms: _644  and  _645
REMARK  273  A    between atoms: _644  and  _647
REMARK  274  A    between atoms: _647  and  _648
REMARK  275  A    between atoms: _648  and  _649
REMARK  276  A    between atoms: _654  and  _656
REMARK  277  A    between atoms: _656  and  _657
REMARK  278  A    between atoms: _656  and  _659
REMARK  279  A    between atoms: _662  and  _664
REMARK  280  A    between atoms: _664  and  _665
REMARK  281  A    between atoms: _664  and  _667
REMARK  282  A    between atoms: _667  and  _668
REMARK  283  A    between atoms: _674  and  _676
REMARK  284  A    between atoms: _676  and  _677
REMARK  285  A    between atoms: _680  and  _682
REMARK  286  A    between atoms: _682  and  _683
REMARK  287  A    between atoms: _682  and  _685
REMARK  288  A    between atoms: _685  and  _686
REMARK  289  A    between atoms: _689  and  _691
REMARK  290  A    between atoms: _691  and  _692
REMARK  291  A    between atoms: _691  and  _694
REMARK  292  A    between atoms: _694  and  _695
REMARK  293  A    between atoms: _695  and  _696
REMARK  294  A    between atoms: _696  and  _697
REMARK  295  A    between atoms: _706  and  _708
REMARK  296  A    between atoms: _708  and  _709
REMARK  297  A    between atoms: _708  and  _711
REMARK  298  A    between atoms: _711  and  _712
REMARK  299  A    between atoms: _718  and  _720
REMARK  300  A    between atoms: _720  and  _721
REMARK  301  A    between atoms: _720  and  _723
REMARK  302  A    between atoms: _723  and  _724
REMARK  303  A    between atoms: _727  and  _729
REMARK  304  A    between atoms: _729  and  _730
REMARK  305  A    between atoms: _729  and  _732
REMARK  306  A    between atoms: _732  and  _733
REMARK  307  A    between atoms: _738  and  _739
REMARK  308  A    between atoms: _741  and  _743
REMARK  309  A    between atoms: _743  and  _744
REMARK  310  A    between atoms: _747  and  _749
REMARK  311  A    between atoms: _749  and  _750
REMARK  312  A    between atoms: _749  and  _752
REMARK  313  A    between atoms: _752  and  _753
REMARK  314  A    between atoms: _753  and  _754
REMARK  315  A    between atoms: _756  and  _758
REMARK  316  A    between atoms: _758  and  _759
REMARK  317  A    between atoms: _758  and  _761
REMARK  318  A    between atoms: _761  and  _762
REMARK  319  A    between atoms: _767  and  _769
REMARK  320  A    between atoms: _769  and  _770
REMARK  321  A    between atoms: _769  and  _772
REMARK  322  A    between atoms: _772  and  _773
REMARK  323  A    between atoms: _773  and  _774
REMARK  324  A    between atoms: _774  and  _775
REMARK  325  A    between atoms: _784  and  _786
REMARK  326  A    between atoms: _786  and  _787
REMARK  327  A    between atoms: _786  and  _789
REMARK  328  A    between atoms: _789  and  _790
REMARK  329  A    between atoms: _790  and  _791
REMARK  330  A    between atoms: _794  and  _796
REMARK  331  A    between atoms: _796  and  _797
REMARK  332  A    between atoms: _796  and  _799
REMARK  333  A    between atoms: _802  and  _804
REMARK  334  A    between atoms: _804  and  _805
REMARK  335  A    between atoms: _804  and  _807
REMARK  336  A    between atoms: _807  and  _808
REMARK                            x       y       z     vdW  Elec       q    Type
REMARK                         _______ _______ _______ _____ _____    ______ ____
ROOT
ATOM      1  CG  TYR A   1      -0.163  14.719  -9.464  0.00  0.00    -0.020 A 
ATOM      2  CD2 TYR A   1       1.158  15.115  -9.367  0.00  0.00    -0.001 A 
ATOM      3  CE2 TYR A   1       2.181  14.204  -9.555  0.00  0.00    +0.036 A 
ATOM      4  CZ  TYR A   1       1.851  12.900  -9.877  0.00  0.00    +0.134 A 
ATOM      5  CE1 TYR A   1       0.544  12.492  -9.999  0.00  0.00    +0.036 A 
ATOM      6  CD1 TYR A   1      -0.475  13.406  -9.785  0.00  0.00    -0.001 A 
ENDROOT
BRANCH   4   7
ATOM      7  OH  TYR A   1       2.872  12.009 -10.087  0.00  0.00    -0.506 OA
ATOM      8  HH  TYR A   1       2.794  11.261  -9.443  0.00  0.00    +0.292 HD
ENDBRANCH   4   7
BRANCH   1   9
ATOM      9  CB  TYR A   1      -1.282  15.726  -9.276  0.00  0.00    +0.051 C 
BRANCH   9  10
ATOM     10  CA  TYR A   1      -1.417  16.491 -10.604  0.00  0.00    +0.137 C 
BRANCH  10  11
ATOM     11  N   TYR A   1      -2.538  17.419 -10.520  0.00  0.00    -0.239 NA
ATOM     12  H   TYR A   1      -3.165  17.434  -9.690  0.00  0.00    +0.142 HD
ENDBRANCH  10  11
BRANCH  10  13
ATOM     13  C   TYR A   1      -1.585  15.560 -11.789  0.00  0.00    +0.224 C 
ATOM     14  O   TYR A   1      -0.658  15.373 -12.573  0.00  0.00    -0.287 OA
ENDBRANCH  10  13
ENDBRANCH   9  10
ENDBRANCH   1   9
TORSDOF 5
REMARK  Name = ../refined-set-2016/1i5r/1i5r_pocket.pdb
REMARK  336 active torsions:
REMARK  status: ('A' for Active; 'I' for Inactive)
REMARK    1  A    between atoms: _1  and  _3
REMARK    2  A    between atoms: _3  and  _4
REMARK    3  A    between atoms: _3  and  _6
REMARK    4  A    between atoms: _6  and  _7
REMARK    5  A    between atoms: _10  and  _12
REMARK    6  A    between atoms: _12  and  _13
REMARK    7  A    between atoms: _12  and  _15
REMARK    8  A    between atoms: _15  and  _16
REMARK    9  A    between atoms: _19  and  _21
REMARK   10  A    between atoms: _21  and  _22
REMARK   11  A    between atoms: _24  and  _26
REMARK   12  A    between atoms: _26  and  _27
REMARK   13  A    between atoms: _26  and  _29
REMARK   14  A    between atoms: _31  and  _33
REMARK   15  A    between atoms: _33  and  _34
REMARK   16  A    between atoms: _33  and  _36
REMARK   17  A    between atoms: _36  and  _37
REMARK   18  A    between atoms: _39  and  _41
REMARK   19  A    between atoms: _41  and  _42
REMARK   20  A    between atoms: _41  and  _44
REMARK   21  A    between atoms: _44  and  _45
REMARK   22  A    between atoms: _47  and  _49
REMARK   23  A    between atoms: _49  and  _50
REMARK   24  A    between atoms: _52  and  _54
REMARK   25  A    between atoms: _54  and  _55
REMARK   26  A    between atoms: _54  and  _57
REMARK   27  A    between atoms: _57  and  _58
REMARK   28  A    between atoms: _61  and  _63
REMARK   29  A    between atoms: _63  and  _64
REMARK   30  A    between atoms: _66  and  _68
REMARK   31  A    between atoms: _68  and  _69
REMARK   32  A    between atoms: _68  and  _71
REMARK   33  A    between atoms: _71  and  _72
REMARK   34  A    between atoms: _75  and  _77
REMARK   35  A    between atoms: _77  and  _78
REMARK   36  A    between atoms: _77  and  _80
REMARK   37  A    between atoms: _80  and  _81
REMARK   38  A    between atoms: _86  and  _88
REMARK   39  A    between atoms: _88  and  _89
REMARK   40  A    between atoms: _88  and  _91
REMARK   41  A    between atoms: _91  and  _92
REMARK   42  A    between atoms: _95  and  _97
REMARK   43  A    between atoms: _97  and  _98
REMARK   44  A    between atoms: _97  and  _100
REMARK   45  A    between atoms: _100  and  _101
REMARK   46  A    between atoms: _104  and  _106
REMARK   47  A    between atoms: _106  and  _107
REMARK   48  A    between atoms: _106  and  _109
REMARK   49  A    between atoms: _109  and  _110
REMARK   50  A    between atoms: _110  and  _111
REMARK   51  A    between atoms: _111  and  _112
REMARK   52  A    between atoms: _121  and  _123
REMARK   53  A    between atoms: _123  and  _124
REMARK   54  A    between atoms: _123  and  _126
REMARK   55  A    between atoms: _126  and  _127
REMARK   56  A    between atoms: _130  and  _132
REMARK   57  A    between atoms: _132  and  _133
REMARK   58  A    between atoms: _132  and  _135
REMARK   59  A    between atoms: _135  and  _136
REMARK   60  A    between atoms: _139  and  _141
REMARK   61  A    between atoms: _141  and  _142
REMARK   62  A    between atoms: _141  and  _144
REMARK   63  A    between atoms: _144  and  _145
REMARK   64  A    between atoms: _145  and  _146
REMARK   65  A    between atoms: _146  and  _147
REMARK   66  A    between atoms: _156  and  _158
REMARK   67  A    between atoms: _158  and  _159
REMARK   68  A    between atoms: _158  and  _161
REMARK   69  A    between atoms: _161  and  _162
REMARK   70  A    between atoms: _165  and  _167
REMARK   71  A    between atoms: _167  and  _168
REMARK   72  A    between atoms: _167  and  _170
REMARK   73  A    between atoms: _170  and  _171
REMARK   74  A    between atoms: _171  and  _172
REMARK   75  A    between atoms: _177  and  _179
REMARK   76  A    between atoms: _179  and  _180
REMARK   77  A    between atoms: _179  and  _182
REMARK   78  A    between atoms: _182  and  _183
REMARK   79  A    between atoms: _186  and  _188
REMARK   80  A    between atoms: _188  and  _189
REMARK   81  A    between atoms: _188  and  _191
REMARK   82  A    between atoms: _191  and  _192
REMARK   83  A    between atoms: _195  and  _197
REMARK   84  A    between atoms: _197  and  _198
REMARK   85  A    between atoms: _197  and  _200
REMARK   86  A    between atoms: _203  and  _205
REMARK   87  A    between atoms: _205  and  _206
REMARK   88  A    between atoms: _205  and  _208
REMARK   89  A    between atoms: _208  and  _209
REMARK   90  A    between atoms: _209  and  _210
REMARK   91  A    between atoms: _210  and  _211
REMARK   92  A    between atoms: _220  and  _222
REMARK   93  A    between atoms: _222  and  _223
REMARK   94  A    between atoms: _222  and  _225
REMARK   95  A    between atoms: _225  and  _226
REMARK   96  A    between atoms: _229  and  _231
REMARK   97  A    between atoms: _231  and  _232
REMARK   98  A    between atoms: _231  and  _234
REMARK   99  A    between atoms: _234  and  _235
REMARK  100  A    between atoms: _237  and  _239
REMARK  101  A    between atoms: _239  and  _240
REMARK  102  A    between atoms: _239  and  _242
REMARK  103  A    between atoms: _245  and  _247
REMARK  104  A    between atoms: _247  and  _248
REMARK  105  A    between atoms: _247  and  _250
REMARK  106  A    between atoms: _252  and  _254
REMARK  107  A    between atoms: _254  and  _255
REMARK  108  A    between atoms: _254  and  _257
REMARK  109  A    between atoms: _257  and  _258
REMARK  110  A    between atoms: _263  and  _265
REMARK  111  A    between atoms: _265  and  _266
REMARK  112  A    between atoms: _269  and  _271
REMARK  113  A    between atoms: _271  and  _272
REMARK  114  A    between atoms: _274  and  _276
REMARK  115  A    between atoms: _276  and  _277
REMARK  116  A    between atoms: _276  and  _279
REMARK  117  A    between atoms: _279  and  _280
REMARK  118  A    between atoms: _283  and  _285
REMARK  119  A    between atoms: _285  and  _286
REMARK  120  A    between atoms: _288  and  _290
REMARK  121  A    between atoms: _290  and  _291
REMARK  122  A    between atoms: _290  and  _293
REMARK  123  A    between atoms: _293  and  _294
REMARK  124  A    between atoms: _297  and  _299
REMARK  125  A    between atoms: _299  and  _300
REMARK  126  A    between atoms: _299  and  _302
REMARK  127  A    between atoms: _302  and  _303
REMARK  128  A    between atoms: _306  and  _308
REMARK  129  A    between atoms: _308  and  _309
REMARK  130  A    between atoms: _308  and  _311
REMARK  131  A    between atoms: _311  and  _312
REMARK  132  A    between atoms: _314  and  _316
REMARK  133  A    between atoms: _316  and  _317
REMARK  134  A    between atoms: _316  and  _319
REMARK  135  A    between atoms: _319  and  _320
REMARK  136  A    between atoms: _323  and  _325
REMARK  137  A    between atoms: _325  and  _326
REMARK  138  A    between atoms: _325  and  _328
REMARK  139  A    between atoms: _331  and  _333
REMARK  140  A    between atoms: _333  and  _334
REMARK  141  A    between atoms: _333  and  _336
REMARK  142  A    between atoms: _336  and  _337
REMARK  143  A    between atoms: _342  and  _344
REMARK  144  A    between atoms: _344  and  _345
REMARK  145  A    between atoms: _347  and  _349
REMARK  146  A    between atoms: _349  and  _350
REMARK  147  A    between atoms: _349  and  _352
REMARK  148  A    between atoms: _352  and  _353
REMARK  149  A    between atoms: _353  and  _354
REMARK  150  A    between atoms: _354  and  _355
REMARK  151  A    between atoms: _364  and  _366
REMARK  152  A    between atoms: _366  and  _367
REMARK  153  A    between atoms: _366  and  _369
REMARK  154  A    between atoms: _369  and  _370
REMARK  155  A    between atoms: _370  and  _371
REMARK  156  A    between atoms: _373  and  _375
REMARK  157  A    between atoms: _375  and  _376
REMARK  158  A    between atoms: _375  and  _378
REMARK  159  A    between atoms: _378  and  _379
REMARK  160  A    between atoms: _382  and  _384
REMARK  161  A    between atoms: _384  and  _385
REMARK  162  A    between atoms: _387  and  _389
REMARK  163  A    between atoms: _389  and  _390
REMARK  164  A    between atoms: _389  and  _392
REMARK  165  A    between atoms: _392  and  _393
REMARK  166  A    between atoms: _395  and  _397
REMARK  167  A    between atoms: _397  and  _398
REMARK  168  A    between atoms: _397  and  _400
REMARK  169  A    between atoms: _403  and  _405
REMARK  170  A    between atoms: _405  and  _406
REMARK  171  A    between atoms: _408  and  _410
REMARK  172  A    between atoms: _410  and  _411
REMARK  173  A    between atoms: _413  and  _415
REMARK  174  A    between atoms: _415  and  _416
REMARK  175  A    between atoms: _415  and  _418
REMARK  176  A    between atoms: _418  and  _419
REMARK  177  A    between atoms: _422  and  _424
REMARK  178  A    between atoms: _424  and  _425
REMARK  179  A    between atoms: _424  and  _427
REMARK  180  A    between atoms: _427  and  _428
REMARK  181  A    between atoms: _428  and  _429
REMARK  182  A    between atoms: _431  and  _433
REMARK  183  A    between atoms: _433  and  _434
REMARK  184  A    between atoms: _436  and  _438
REMARK  185  A    between atoms: _438  and  _439
REMARK  186  A    between atoms: _438  and  _441
REMARK  187  A    between atoms: _441  and  _442
REMARK  188  A    between atoms: _446  and  _447
REMARK  189  A    between atoms: _452  and  _454
REMARK  190  A    between atoms: _454  and  _455
REMARK  191  A    between atoms: _454  and  _457
REMARK  192  A    between atoms: _457  and  _458
REMARK  193  A    between atoms: _463  and  _465
REMARK  194  A    between atoms: _465  and  _466
REMARK  195  A    between atoms: _465  and  _468
REMARK  196  A    between atoms: _468  and  _469
REMARK  197  A    between atoms: _474  and  _475
REMARK  198  A    between atoms: _477  and  _479
REMARK  199  A    between atoms: _479  and  _480
REMARK  200  A    between atoms: _479  and  _482
REMARK  201  A    between atoms: _484  and  _486
REMARK  202  A    between atoms: _486  and  _487
REMARK  203  A    between atoms: _486  and  _489
REMARK  204  A    between atoms: _489  and  _490
REMARK  205  A    between atoms: _490  and  _491
REMARK  206  A    between atoms: _491  and  _492
REMARK  207  A    between atoms: _492  and  _493
REMARK  208  A    between atoms: _497  and  _499
REMARK  209  A    between atoms: _499  and  _500
REMARK  210  A    between atoms: _499  and  _502
REMARK  211  A    between atoms: _502  and  _503
REMARK  212  A    between atoms: _503  and  _504
REMARK  213  A    between atoms: _507  and  _509
REMARK  214  A    between atoms: _509  and  _510
REMARK  215  A    between atoms: _509  and  _512
REMARK  216  A    between atoms: _514  and  _516
REMARK  217  A    between atoms: _516  and  _517
REMARK  218  A    between atoms: _520  and  _521
REMARK  219  A    between atoms: _526  and  _528
REMARK  220  A    between atoms: _528  and  _529
REMARK  221  A    between atoms: _528  and  _531
REMARK  222  A    between atoms: _534  and  _536
REMARK  223  A    between atoms: _536  and  _537
REMARK  224  A    between atoms: _536  and  _539
REMARK  225  A    between atoms: _539  and  _540
REMARK  226  A    between atoms: _543  and  _545
REMARK  227  A    between atoms: _545  and  _546
REMARK  228  A    between atoms: _545  and  _548
REMARK  229  A    between atoms: _548  and  _549
REMARK  230  A    between atoms: _555  and  _557
REMARK  231  A    between atoms: _557  and  _558
REMARK  232  A    between atoms: _557  and  _560
REMARK  233  A    between atoms: _560  and  _561
REMARK  234  A    between atoms: _561  and  _562
REMARK  235  A    between atoms: _564  and  _566
REMARK  236  A    between atoms: _566  and  _567
REMARK  237  A    between atoms: _566  and  _569
REMARK  238  A    between atoms: _569  and  _570
REMARK  239  A    between atoms: _570  and  _571
REMARK  240  A    between atoms: _574  and  _576
REMARK  241  A    between atoms: _576  and  _577
REMARK  242  A    between atoms: _576  and  _579
REMARK  243  A    between atoms: _579  and  _580
REMARK  244  A    between atoms: _580  and  _581
REMARK  245  A    between atoms: _581  and  _582
REMARK  246  A    between atoms: _582  and  _583
REMARK  247  A    between atoms: _587  and  _589
REMARK  248  A    between atoms: _589  and  _590
REMARK  249  A    between atoms: _589  and  _592
REMARK  250  A    between atoms: _592  and  _593
REMARK  251  A    between atoms: _598  and  _599
REMARK  252  A    between atoms: _601  and  _603
REMARK  253  A    between atoms: _603  and  _604
REMARK  254  A    between atoms: _603  and  _606
REMARK  255  A    between atoms: _606  and  _607
REMARK  256  A    between atoms: _610  and  _612
REMARK  257  A    between atoms: _612  and  _613
REMARK  258  A    between atoms: _612  and  _615
REMARK  259  A    between atoms: _615  and  _616
REMARK  260  A    between atoms: _621  and  _623
REMARK  261  A    between atoms: _623  and  _624
REMARK  262  A    between atoms: _623  and  _626
REMARK  263  A    between atoms: _626  and  _627
REMARK  264  A    between atoms: _629  and  _631
REMARK  265  A    between atoms: _631  and  _632
REMARK  266  A    between atoms: _631  and  _634
REMARK  267  A    between atoms: _634  and  _635
REMARK  268  A    between atoms: _635  and  _636
REMARK  269  A    between atoms: _636  and  _637
REMARK  270  A    between atoms: _637  and  _638
REMARK  271  A    between atoms: _642  and  _644
REMARK  272  A    between atoms: _644  and  _645
REMARK  273  A    between atoms: _644  and  _647
REMARK  274  A    between atoms: _647  and  _648
REMARK  275  A    between atoms: _648  and  _649
REMARK  276  A    between atoms: _654  and  _656
REMARK  277  A    between atoms: _656  and  _657
REMARK  278  A    between atoms: _656  and  _659
REMARK  279  A    between atoms: _662  and  _664
REMARK  280  A    between atoms: _664  and  _665
REMARK  281  A    between atoms: _664  and  _667
REMARK  282  A    between atoms: _667  and  _668
REMARK  283  A    between atoms: _674  and  _676
REMARK  284  A    between atoms: _676  and  _677
REMARK  285  A    between atoms: _680  and  _682
REMARK  286  A    between atoms: _682  and  _683
REMARK  287  A    between atoms: _682  and  _685
REMARK  288  A    between atoms: _685  and  _686
REMARK  289  A    between atoms: _689  and  _691
REMARK  290  A    between atoms: _691  and  _692
REMARK  291  A    between atoms: _691  and  _694
REMARK  292  A    between atoms: _694  and  _695
REMARK  293  A    between atoms: _695  and  _696
REMARK  294  A    between atoms: _696  and  _697
REMARK  295  A    between atoms: _706  and  _708
REMARK  296  A    between atoms: _708  and  _709
REMARK  297  A    between atoms: _708  and  _711
REMARK  298  A    between atoms: _711  and  _712
REMARK  299  A    between atoms: _718  and  _720
REMARK  300  A    between atoms: _720  and  _721
REMARK  301  A    between atoms: _720  and  _723
REMARK  302  A    between atoms: _723  and  _724
REMARK  303  A    between atoms: _727  and  _729
REMARK  304  A    between atoms: _729  and  _730
REMARK  305  A    between atoms: _729  and  _732
REMARK  306  A    between atoms: _732  and  _733
REMARK  307  A    between atoms: _738  and  _739
REMARK  308  A    between atoms: _741  and  _743
REMARK  309  A    between atoms: _743  and  _744
REMARK  310  A    between atoms: _747  and  _749
REMARK  311  A    between atoms: _749  and  _750
REMARK  312  A    between atoms: _749  and  _752
REMARK  313  A    between atoms: _752  and  _753
REMARK  314  A    between atoms: _753  and  _754
REMARK  315  A    between atoms: _756  and  _758
REMARK  316  A    between atoms: _758  and  _759
REMARK  317  A    between atoms: _758  and  _761
REMARK  318  A    between atoms: _761  and  _762
REMARK  319  A    between atoms: _767  and  _769
REMARK  320  A    between atoms: _769  and  _770
REMARK  321  A    between atoms: _769  and  _772
REMARK  322  A    between atoms: _772  and  _773
REMARK  323  A    between atoms: _773  and  _774
REMARK  324  A    between atoms: _774  and  _775
REMARK  325  A    between atoms: _784  and  _786
REMARK  326  A    between atoms: _786  and  _787
REMARK  327  A    between atoms: _786  and  _789
REMARK  328  A    between atoms: _789  and  _790
REMARK  329  A    between atoms: _790  and  _791
REMARK  330  A    between atoms: _794  and  _796
REMARK  331  A    between atoms: _796  and  _797
REMARK  332  A    between atoms: _796  and  _799
REMARK  333  A    between atoms: _802  and  _804
REMARK  334  A    between atoms: _804  and  _805
REMARK  335  A    between atoms: _804  and  _807
REMARK  336  A    between atoms: _807  and  _808
REMARK                            x       y       z     vdW  Elec       q    Type
REMARK                         _______ _______ _______ _____ _____    ______ ____
ROOT
ATOM      1  CA  ARG A   4       1.681  15.986 -19.748  0.00  0.00    +0.149 C 
ENDROOT
BRANCH   1   2
ATOM      2  C   ARG A   4       3.176  15.821 -19.538  0.00  0.00    +0.241 C 
ATOM      3  N   GLU A   5       3.596  15.731 -18.280  0.00  0.00    -0.297 N 
ATOM      4  H   GLU A   5       2.905  15.783 -17.504  0.00  0.00    +0.150 HD
ATOM      5  O   ARG A   4       3.984  15.754 -20.461  0.00  0.00    -0.273 OA
BRANCH   3   6
ATOM      6  CA  GLU A   5       5.010  15.560 -17.971  0.00  0.00    +0.149 C 
BRANCH   6   7
ATOM      7  C   GLU A   5       5.538  14.273 -18.582  0.00  0.00    +0.241 C 
ATOM      8  N   VAL A   6       4.809  13.178 -18.395  0.00  0.00    -0.297 N 
ATOM      9  H   VAL A   6       3.908  13.249 -17.880  0.00  0.00    +0.150 HD
ATOM     10  O   GLU A   5       6.594  14.225 -19.216  0.00  0.00    -0.273 OA
BRANCH   8  11
ATOM     11  CA  VAL A   6       5.242  11.882 -18.895  0.00  0.00    +0.149 C 
BRANCH  11  12
ATOM     12  C   VAL A   6       4.999  11.703 -20.383  0.00  0.00    +0.241 C 
ATOM     13  N   PHE A   7       3.804  12.064 -20.825  0.00  0.00    -0.298 N 
ATOM     14  H   PHE A   7       3.129  12.510 -20.171  0.00  0.00    +0.150 HD
ATOM     15  O   VAL A   6       5.873  11.209 -21.094  0.00  0.00    -0.273 OA
BRANCH  13  16
ATOM     16  CA  PHE A   7       3.421  11.846 -22.212  0.00  0.00    +0.141 C 
BRANCH  16  17
ATOM     17  C   PHE A   7       3.539  13.086 -23.075  0.00  0.00    +0.227 C 
ATOM     18  O   PHE A   7       3.042  13.040 -24.205  0.00  0.00    -0.286 OA
ENDBRANCH  16  17
BRANCH  16  19
ATOM     19  CB  PHE A   7       2.009  11.243 -22.245  0.00  0.00    +0.054 C 
BRANCH  19  20
ATOM     20  CG  PHE A   7       1.895  10.015 -21.378  0.00  0.00    -0.020 A 
ATOM     21  CD2 PHE A   7       1.184  10.075 -20.190  0.00  0.00    -0.004 A 
ATOM     22  CE2 PHE A   7       1.065   8.973 -19.374  0.00  0.00    -0.000 A 
ATOM     23  CZ  PHE A   7       1.674   7.779 -19.725  0.00  0.00    -0.000 A 
ATOM     24  CE1 PHE A   7       2.392   7.713 -20.903  0.00  0.00    -0.000 A 
ATOM     25  CD1 PHE A   7       2.497   8.817 -21.722  0.00  0.00    -0.004 A 
ENDBRANCH  19  20
ENDBRANCH  16  19
ENDBRANCH  13  16
ENDBRANCH  11  12
BRANCH  11  26
ATOM     26  CB  VAL A   6       4.489  10.758 -18.144  0.00  0.00    +0.027 C 
ATOM     27  CG2 VAL A   6       4.751  10.911 -16.657  0.00  0.00    +0.002 C 
ATOM     28  CG1 VAL A   6       4.895   9.390 -18.658  0.00  0.00    +0.002 C 
ENDBRANCH  11  26
ENDBRANCH   8  11
ENDBRANCH   6   7
BRANCH   6  29
ATOM     29  CB  GLU A   5       5.195  15.572 -16.454  0.00  0.00    +0.041 C 
BRANCH  29  30
ATOM     30  CG  GLU A   5       6.615  15.316 -15.982  0.00  0.00    +0.116 C 
BRANCH  30  31
ATOM     31  CD  GLU A   5       7.556  16.427 -16.418  0.00  0.00    +0.365 C 
ATOM     32  OE2 GLU A   5       7.176  17.608 -16.278  0.00  0.00    -0.246 OA
ATOM     33  OE1 GLU A   5       8.651  16.091 -16.906  0.00  0.00    -0.246 OA
ENDBRANCH  30  31
ENDBRANCH  29  30
ENDBRANCH   6  29
ENDBRANCH   3   6
ENDBRANCH   1   2
BRANCH   1  35
ATOM     34  C   HIS A   3       0.998  13.815 -18.902  0.00  0.00    +0.241 C 
ATOM     35  N   ARG A   4       0.928  15.144 -18.823  0.00  0.00    -0.297 N 
ATOM     36  H   ARG A   4       0.331  15.586 -18.095  0.00  0.00    +0.150 HD
ATOM     37  O   HIS A   3       1.659  13.215 -19.740  0.00  0.00    -0.273 OA
BRANCH  34  38
ATOM     38  CA  HIS A   3       0.183  13.070 -17.839  0.00  0.00    +0.155 C 
BRANCH  38  40
ATOM     39  C   MET A   2       1.706  13.688 -16.082  0.00  0.00    +0.241 C 
ATOM     40  N   HIS A   3       0.453  13.679 -16.536  0.00  0.00    -0.297 N 
ATOM     41  H   HIS A   3      -0.317  14.096 -15.976  0.00  0.00    +0.150 HD
ATOM     42  O   MET A   2       2.640  13.208 -16.729  0.00  0.00    -0.273 OA
BRANCH  39  43
ATOM     43  CA  MET A   2       1.954  14.366 -14.747  0.00  0.00    +0.149 C 
BRANCH  43  45
ATOM     44  C   ALA A   1       1.329  16.620 -15.360  0.00  0.00    +0.238 C 
ATOM     45  N   MET A   2       1.095  15.543 -14.605  0.00  0.00    -0.297 N 
ATOM     46  H   MET A   2       0.310  15.541 -13.923  0.00  0.00    +0.150 HD
ATOM     47  O   ALA A   1       2.243  16.661 -16.172  0.00  0.00    -0.274 OA
BRANCH  44  48
ATOM     48  CA  ALA A   1       0.407  17.808 -15.110  0.00  0.00    +0.145 C 
ATOM     49  CB  ALA A   1       0.882  18.502 -13.849  0.00  0.00    +0.028 C 
BRANCH  48  50
ATOM     50  N   ALA A   1      -0.989  17.404 -15.001  0.00  0.00    -0.238 NA
ATOM     51  H   ALA A   1      -1.500  17.564 -14.109  0.00  0.00    +0.142 HD
ENDBRANCH  48  50
ENDBRANCH  44  48
ENDBRANCH  43  45
BRANCH  43  52
ATOM     52  CB  MET A   2       1.746  13.417 -13.572  0.00  0.00    +0.041 C 
BRANCH  52  53
ATOM     53  CG  MET A   2       2.679  12.210 -13.597  0.00  0.00    +0.060 C 
BRANCH  53  54
ATOM     54  SD  MET A   2       4.431  12.653 -13.675  0.00  0.00    -0.139 S 
ATOM     55  CE  MET A   2       4.520  13.963 -12.479  0.00  0.00    +0.069 C 
ENDBRANCH  53  54
ENDBRANCH  52  53
ENDBRANCH  43  52
ENDBRANCH  39  43
ENDBRANCH  38  40
BRANCH  38  56
ATOM     56  CB  HIS A   3      -1.306  13.129 -18.173  0.00  0.00    +0.076 C 
BRANCH  56  57
ATOM     57  CG  HIS A   3      -1.556  12.519 -19.521  0.00  0.00    +0.082 A 
ATOM     58  ND1 HIS A   3      -1.837  11.187 -19.709  0.00  0.00    -0.227 NA
ATOM     59  CE1 HIS A   3      -1.983  10.976 -21.001  0.00  0.00    +0.199 A 
ATOM     60  NE2 HIS A   3      -1.803  12.106 -21.654  0.00  0.00    -0.221 NA
ATOM     61  CD2 HIS A   3      -1.533  13.101 -20.754  0.00  0.00    +0.115 A 
ENDBRANCH  56  57
ENDBRANCH  38  56
ENDBRANCH  34  38
ENDBRANCH   1  35
BRANCH   1  62
ATOM     62  CB  ARG A   4       1.282  17.447 -19.518  0.00  0.00    +0.033 C 
BRANCH  62  63
ATOM     63  CG  ARG A   4      -0.198  17.688 -19.767  0.00  0.00    +0.045 C 
BRANCH  63  64
ATOM     64  CD  ARG A   4      -0.547  19.167 -19.722  0.00  0.00    +0.174 C 
BRANCH  64  65
ATOM     65  NE  ARG A   4      -0.019  19.880 -20.879  0.00  0.00    -0.265 N 
ATOM     66  HE  ARG A   4       0.727  20.582 -20.700  0.00  0.00    +0.259 HD
ATOM     67  CZ  ARG A   4      -0.401  19.718 -22.138  0.00  0.00    +0.342 C 
ATOM     68  NH2 ARG A   4      -1.348  18.854 -22.475  0.00  0.00    -0.292 N 
ATOM     69 HH21 ARG A   4      -1.813  18.280 -21.743  0.00  0.00    +0.255 HD
ATOM     70 HH22 ARG A   4      -1.626  18.750 -23.472  0.00  0.00    +0.255 HD
ATOM     71  NH1 ARG A   4       0.174  20.438 -23.095  0.00  0.00    -0.292 N 
ATOM     72 HH11 ARG A   4       0.918  21.123 -22.854  0.00  0.00    +0.255 HD
ATOM     73 HH12 ARG A   4      -0.120  20.317 -24.085  0.00  0.00    +0.255 HD
ENDBRANCH  64  65
ENDBRANCH  63  64
ENDBRANCH  62  63
ENDBRANCH   1  62
TORSDOF 29
REMARK  Name = ../refined-set-2016/1i5r/1i5r_pocket.pdb
REMARK  336 active torsions:
REMARK  status: ('A' for Active; 'I' for Inactive)
REMARK    1  A    between atoms: _1  and  _3
REMARK    2  A    between atoms: _3  and  _4
REMARK    3  A    between atoms: _3  and  _6
REMARK    4  A    between atoms: _6  and  _7
REMARK    5  A    between atoms: _10  and  _12
REMARK    6  A    between atoms: _12  and  _13
REMARK    7  A    between atoms: _12  and  _15
REMARK    8  A    between atoms: _15  and  _16
REMARK    9  A    between atoms: _19  and  _21
REMARK   10  A    between atoms: _21  and  _22
REMARK   11  A    between atoms: _24  and  _26
REMARK   12  A    between atoms: _26  and  _27
REMARK   13  A    between atoms: _26  and  _29
REMARK   14  A    between atoms: _31  and  _33
REMARK   15  A    between atoms: _33  and  _34
REMARK   16  A    between atoms: _33  and  _36
REMARK   17  A    between atoms: _36  and  _37
REMARK   18  A    between atoms: _39  and  _41
REMARK   19  A    between atoms: _41  and  _42
REMARK   20  A    between atoms: _41  and  _44
REMARK   21  A    between atoms: _44  and  _45
REMARK   22  A    between atoms: _47  and  _49
REMARK   23  A    between atoms: _49  and  _50
REMARK   24  A    between atoms: _52  and  _54
REMARK   25  A    between atoms: _54  and  _55
REMARK   26  A    between atoms: _54  and  _57
REMARK   27  A    between atoms: _57  and  _58
REMARK   28  A    between atoms: _61  and  _63
REMARK   29  A    between atoms: _63  and  _64
REMARK   30  A    between atoms: _66  and  _68
REMARK   31  A    between atoms: _68  and  _69
REMARK   32  A    between atoms: _68  and  _71
REMARK   33  A    between atoms: _71  and  _72
REMARK   34  A    between atoms: _75  and  _77
REMARK   35  A    between atoms: _77  and  _78
REMARK   36  A    between atoms: _77  and  _80
REMARK   37  A    between atoms: _80  and  _81
REMARK   38  A    between atoms: _86  and  _88
REMARK   39  A    between atoms: _88  and  _89
REMARK   40  A    between atoms: _88  and  _91
REMARK   41  A    between atoms: _91  and  _92
REMARK   42  A    between atoms: _95  and  _97
REMARK   43  A    between atoms: _97  and  _98
REMARK   44  A    between atoms: _97  and  _100
REMARK   45  A    between atoms: _100  and  _101
REMARK   46  A    between atoms: _104  and  _106
REMARK   47  A    between atoms: _106  and  _107
REMARK   48  A    between atoms: _106  and  _109
REMARK   49  A    between atoms: _109  and  _110
REMARK   50  A    between atoms: _110  and  _111
REMARK   51  A    between atoms: _111  and  _112
REMARK   52  A    between atoms: _121  and  _123
REMARK   53  A    between atoms: _123  and  _124
REMARK   54  A    between atoms: _123  and  _126
REMARK   55  A    between atoms: _126  and  _127
REMARK   56  A    between atoms: _130  and  _132
REMARK   57  A    between atoms: _132  and  _133
REMARK   58  A    between atoms: _132  and  _135
REMARK   59  A    between atoms: _135  and  _136
REMARK   60  A    between atoms: _139  and  _141
REMARK   61  A    between atoms: _141  and  _142
REMARK   62  A    between atoms: _141  and  _144
REMARK   63  A    between atoms: _144  and  _145
REMARK   64  A    between atoms: _145  and  _146
REMARK   65  A    between atoms: _146  and  _147
REMARK   66  A    between atoms: _156  and  _158
REMARK   67  A    between atoms: _158  and  _159
REMARK   68  A    between atoms: _158  and  _161
REMARK   69  A    between atoms: _161  and  _162
REMARK   70  A    between atoms: _165  and  _167
REMARK   71  A    between atoms: _167  and  _168
REMARK   72  A    between atoms: _167  and  _170
REMARK   73  A    between atoms: _170  and  _171
REMARK   74  A    between atoms: _171  and  _172
REMARK   75  A    between atoms: _177  and  _179
REMARK   76  A    between atoms: _179  and  _180
REMARK   77  A    between atoms: _179  and  _182
REMARK   78  A    between atoms: _182  and  _183
REMARK   79  A    between atoms: _186  and  _188
REMARK   80  A    between atoms: _188  and  _189
REMARK   81  A    between atoms: _188  and  _191
REMARK   82  A    between atoms: _191  and  _192
REMARK   83  A    between atoms: _195  and  _197
REMARK   84  A    between atoms: _197  and  _198
REMARK   85  A    between atoms: _197  and  _200
REMARK   86  A    between atoms: _203  and  _205
REMARK   87  A    between atoms: _205  and  _206
REMARK   88  A    between atoms: _205  and  _208
REMARK   89  A    between atoms: _208  and  _209
REMARK   90  A    between atoms: _209  and  _210
REMARK   91  A    between atoms: _210  and  _211
REMARK   92  A    between atoms: _220  and  _222
REMARK   93  A    between atoms: _222  and  _223
REMARK   94  A    between atoms: _222  and  _225
REMARK   95  A    between atoms: _225  and  _226
REMARK   96  A    between atoms: _229  and  _231
REMARK   97  A    between atoms: _231  and  _232
REMARK   98  A    between atoms: _231  and  _234
REMARK   99  A    between atoms: _234  and  _235
REMARK  100  A    between atoms: _237  and  _239
REMARK  101  A    between atoms: _239  and  _240
REMARK  102  A    between atoms: _239  and  _242
REMARK  103  A    between atoms: _245  and  _247
REMARK  104  A    between atoms: _247  and  _248
REMARK  105  A    between atoms: _247  and  _250
REMARK  106  A    between atoms: _252  and  _254
REMARK  107  A    between atoms: _254  and  _255
REMARK  108  A    between atoms: _254  and  _257
REMARK  109  A    between atoms: _257  and  _258
REMARK  110  A    between atoms: _263  and  _265
REMARK  111  A    between atoms: _265  and  _266
REMARK  112  A    between atoms: _269  and  _271
REMARK  113  A    between atoms: _271  and  _272
REMARK  114  A    between atoms: _274  and  _276
REMARK  115  A    between atoms: _276  and  _277
REMARK  116  A    between atoms: _276  and  _279
REMARK  117  A    between atoms: _279  and  _280
REMARK  118  A    between atoms: _283  and  _285
REMARK  119  A    between atoms: _285  and  _286
REMARK  120  A    between atoms: _288  and  _290
REMARK  121  A    between atoms: _290  and  _291
REMARK  122  A    between atoms: _290  and  _293
REMARK  123  A    between atoms: _293  and  _294
REMARK  124  A    between atoms: _297  and  _299
REMARK  125  A    between atoms: _299  and  _300
REMARK  126  A    between atoms: _299  and  _302
REMARK  127  A    between atoms: _302  and  _303
REMARK  128  A    between atoms: _306  and  _308
REMARK  129  A    between atoms: _308  and  _309
REMARK  130  A    between atoms: _308  and  _311
REMARK  131  A    between atoms: _311  and  _312
REMARK  132  A    between atoms: _314  and  _316
REMARK  133  A    between atoms: _316  and  _317
REMARK  134  A    between atoms: _316  and  _319
REMARK  135  A    between atoms: _319  and  _320
REMARK  136  A    between atoms: _323  and  _325
REMARK  137  A    between atoms: _325  and  _326
REMARK  138  A    between atoms: _325  and  _328
REMARK  139  A    between atoms: _331  and  _333
REMARK  140  A    between atoms: _333  and  _334
REMARK  141  A    between atoms: _333  and  _336
REMARK  142  A    between atoms: _336  and  _337
REMARK  143  A    between atoms: _342  and  _344
REMARK  144  A    between atoms: _344  and  _345
REMARK  145  A    between atoms: _347  and  _349
REMARK  146  A    between atoms: _349  and  _350
REMARK  147  A    between atoms: _349  and  _352
REMARK  148  A    between atoms: _352  and  _353
REMARK  149  A    between atoms: _353  and  _354
REMARK  150  A    between atoms: _354  and  _355
REMARK  151  A    between atoms: _364  and  _366
REMARK  152  A    between atoms: _366  and  _367
REMARK  153  A    between atoms: _366  and  _369
REMARK  154  A    between atoms: _369  and  _370
REMARK  155  A    between atoms: _370  and  _371
REMARK  156  A    between atoms: _373  and  _375
REMARK  157  A    between atoms: _375  and  _376
REMARK  158  A    between atoms: _375  and  _378
REMARK  159  A    between atoms: _378  and  _379
REMARK  160  A    between atoms: _382  and  _384
REMARK  161  A    between atoms: _384  and  _385
REMARK  162  A    between atoms: _387  and  _389
REMARK  163  A    between atoms: _389  and  _390
REMARK  164  A    between atoms: _389  and  _392
REMARK  165  A    between atoms: _392  and  _393
REMARK  166  A    between atoms: _395  and  _397
REMARK  167  A    between atoms: _397  and  _398
REMARK  168  A    between atoms: _397  and  _400
REMARK  169  A    between atoms: _403  and  _405
REMARK  170  A    between atoms: _405  and  _406
REMARK  171  A    between atoms: _408  and  _410
REMARK  172  A    between atoms: _410  and  _411
REMARK  173  A    between atoms: _413  and  _415
REMARK  174  A    between atoms: _415  and  _416
REMARK  175  A    between atoms: _415  and  _418
REMARK  176  A    between atoms: _418  and  _419
REMARK  177  A    between atoms: _422  and  _424
REMARK  178  A    between atoms: _424  and  _425
REMARK  179  A    between atoms: _424  and  _427
REMARK  180  A    between atoms: _427  and  _428
REMARK  181  A    between atoms: _428  and  _429
REMARK  182  A    between atoms: _431  and  _433
REMARK  183  A    between atoms: _433  and  _434
REMARK  184  A    between atoms: _436  and  _438
REMARK  185  A    between atoms: _438  and  _439
REMARK  186  A    between atoms: _438  and  _441
REMARK  187  A    between atoms: _441  and  _442
REMARK  188  A    between atoms: _446  and  _447
REMARK  189  A    between atoms: _452  and  _454
REMARK  190  A    between atoms: _454  and  _455
REMARK  191  A    between atoms: _454  and  _457
REMARK  192  A    between atoms: _457  and  _458
REMARK  193  A    between atoms: _463  and  _465
REMARK  194  A    between atoms: _465  and  _466
REMARK  195  A    between atoms: _465  and  _468
REMARK  196  A    between atoms: _468  and  _469
REMARK  197  A    between atoms: _474  and  _475
REMARK  198  A    between atoms: _477  and  _479
REMARK  199  A    between atoms: _479  and  _480
REMARK  200  A    between atoms: _479  and  _482
REMARK  201  A    between atoms: _484  and  _486
REMARK  202  A    between atoms: _486  and  _487
REMARK  203  A    between atoms: _486  and  _489
REMARK  204  A    between atoms: _489  and  _490
REMARK  205  A    between atoms: _490  and  _491
REMARK  206  A    between atoms: _491  and  _492
REMARK  207  A    between atoms: _492  and  _493
REMARK  208  A    between atoms: _497  and  _499
REMARK  209  A    between atoms: _499  and  _500
REMARK  210  A    between atoms: _499  and  _502
REMARK  211  A    between atoms: _502  and  _503
REMARK  212  A    between atoms: _503  and  _504
REMARK  213  A    between atoms: _507  and  _509
REMARK  214  A    between atoms: _509  and  _510
REMARK  215  A    between atoms: _509  and  _512
REMARK  216  A    between atoms: _514  and  _516
REMARK  217  A    between atoms: _516  and  _517
REMARK  218  A    between atoms: _520  and  _521
REMARK  219  A    between atoms: _526  and  _528
REMARK  220  A    between atoms: _528  and  _529
REMARK  221  A    between atoms: _528  and  _531
REMARK  222  A    between atoms: _534  and  _536
REMARK  223  A    between atoms: _536  and  _537
REMARK  224  A    between atoms: _536  and  _539
REMARK  225  A    between atoms: _539  and  _540
REMARK  226  A    between atoms: _543  and  _545
REMARK  227  A    between atoms: _545  and  _546
REMARK  228  A    between atoms: _545  and  _548
REMARK  229  A    between atoms: _548  and  _549
REMARK  230  A    between atoms: _555  and  _557
REMARK  231  A    between atoms: _557  and  _558
REMARK  232  A    between atoms: _557  and  _560
REMARK  233  A    between atoms: _560  and  _561
REMARK  234  A    between atoms: _561  and  _562
REMARK  235  A    between atoms: _564  and  _566
REMARK  236  A    between atoms: _566  and  _567
REMARK  237  A    between atoms: _566  and  _569
REMARK  238  A    between atoms: _569  and  _570
REMARK  239  A    between atoms: _570  and  _571
REMARK  240  A    between atoms: _574  and  _576
REMARK  241  A    between atoms: _576  and  _577
REMARK  242  A    between atoms: _576  and  _579
REMARK  243  A    between atoms: _579  and  _580
REMARK  244  A    between atoms: _580  and  _581
REMARK  245  A    between atoms: _581  and  _582
REMARK  246  A    between atoms: _582  and  _583
REMARK  247  A    between atoms: _587  and  _589
REMARK  248  A    between atoms: _589  and  _590
REMARK  249  A    between atoms: _589  and  _592
REMARK  250  A    between atoms: _592  and  _593
REMARK  251  A    between atoms: _598  and  _599
REMARK  252  A    between atoms: _601  and  _603
REMARK  253  A    between atoms: _603  and  _604
REMARK  254  A    between atoms: _603  and  _606
REMARK  255  A    between atoms: _606  and  _607
REMARK  256  A    between atoms: _610  and  _612
REMARK  257  A    between atoms: _612  and  _613
REMARK  258  A    between atoms: _612  and  _615
REMARK  259  A    between atoms: _615  and  _616
REMARK  260  A    between atoms: _621  and  _623
REMARK  261  A    between atoms: _623  and  _624
REMARK  262  A    between atoms: _623  and  _626
REMARK  263  A    between atoms: _626  and  _627
REMARK  264  A    between atoms: _629  and  _631
REMARK  265  A    between atoms: _631  and  _632
REMARK  266  A    between atoms: _631  and  _634
REMARK  267  A    between atoms: _634  and  _635
REMARK  268  A    between atoms: _635  and  _636
REMARK  269  A    between atoms: _636  and  _637
REMARK  270  A    between atoms: _637  and  _638
REMARK  271  A    between atoms: _642  and  _644
REMARK  272  A    between atoms: _644  and  _645
REMARK  273  A    between atoms: _644  and  _647
REMARK  274  A    between atoms: _647  and  _648
REMARK  275  A    between atoms: _648  and  _649
REMARK  276  A    between atoms: _654  and  _656
REMARK  277  A    between atoms: _656  and  _657
REMARK  278  A    between atoms: _656  and  _659
REMARK  279  A    between atoms: _662  and  _664
REMARK  280  A    between atoms: _664  and  _665
REMARK  281  A    between atoms: _664  and  _667
REMARK  282  A    between atoms: _667  and  _668
REMARK  283  A    between atoms: _674  and  _676
REMARK  284  A    between atoms: _676  and  _677
REMARK  285  A    between atoms: _680  and  _682
REMARK  286  A    between atoms: _682  and  _683
REMARK  287  A    between atoms: _682  and  _685
REMARK  288  A    between atoms: _685  and  _686
REMARK  289  A    between atoms: _689  and  _691
REMARK  290  A    between atoms: _691  and  _692
REMARK  291  A    between atoms: _691  and  _694
REMARK  292  A    between atoms: _694  and  _695
REMARK  293  A    between atoms: _695  and  _696
REMARK  294  A    between atoms: _696  and  _697
REMARK  295  A    between atoms: _706  and  _708
REMARK  296  A    between atoms: _708  and  _709
REMARK  297  A    between atoms: _708  and  _711
REMARK  298  A    between atoms: _711  and  _712
REMARK  299  A    between atoms: _718  and  _720
REMARK  300  A    between atoms: _720  and  _721
REMARK  301  A    between atoms: _720  and  _723
REMARK  302  A    between atoms: _723  and  _724
REMARK  303  A    between atoms: _727  and  _729
REMARK  304  A    between atoms: _729  and  _730
REMARK  305  A    between atoms: _729  and  _732
REMARK  306  A    between atoms: _732  and  _733
REMARK  307  A    between atoms: _738  and  _739
REMARK  308  A    between atoms: _741  and  _743
REMARK  309  A    between atoms: _743  and  _744
REMARK  310  A    between atoms: _747  and  _749
REMARK  311  A    between atoms: _749  and  _750
REMARK  312  A    between atoms: _749  and  _752
REMARK  313  A    between atoms: _752  and  _753
REMARK  314  A    between atoms: _753  and  _754
REMARK  315  A    between atoms: _756  and  _758
REMARK  316  A    between atoms: _758  and  _759
REMARK  317  A    between atoms: _758  and  _761
REMARK  318  A    between atoms: _761  and  _762
REMARK  319  A    between atoms: _767  and  _769
REMARK  320  A    between atoms: _769  and  _770
REMARK  321  A    between atoms: _769  and  _772
REMARK  322  A    between atoms: _772  and  _773
REMARK  323  A    between atoms: _773  and  _774
REMARK  324  A    between atoms: _774  and  _775
REMARK  325  A    between atoms: _784  and  _786
REMARK  326  A    between atoms: _786  and  _787
REMARK  327  A    between atoms: _786  and  _789
REMARK  328  A    between atoms: _789  and  _790
REMARK  329  A    between atoms: _790  and  _791
REMARK  330  A    between atoms: _794  and  _796
REMARK  331  A    between atoms: _796  and  _797
REMARK  332  A    between atoms: _796  and  _799
REMARK  333  A    between atoms: _802  and  _804
REMARK  334  A    between atoms: _804  and  _805
REMARK  335  A    between atoms: _804  and  _807
REMARK  336  A    between atoms: _807  and  _808
REMARK                            x       y       z     vdW  Elec       q    Type
REMARK                         _______ _______ _______ _____ _____    ______ ____
ROOT
ATOM      1  O   HOH     1      18.988  -8.053  -0.853  0.00  0.00    +0.000 OA
ENDROOT
TORSDOF 0
REMARK  Name = ../refined-set-2016/1i5r/1i5r_pocket.pdb
REMARK  336 active torsions:
REMARK  status: ('A' for Active; 'I' for Inactive)
REMARK    1  A    between atoms: _1  and  _3
REMARK    2  A    between atoms: _3  and  _4
REMARK    3  A    between atoms: _3  and  _6
REMARK    4  A    between atoms: _6  and  _7
REMARK    5  A    between atoms: _10  and  _12
REMARK    6  A    between atoms: _12  and  _13
REMARK    7  A    between atoms: _12  and  _15
REMARK    8  A    between atoms: _15  and  _16
REMARK    9  A    between atoms: _19  and  _21
REMARK   10  A    between atoms: _21  and  _22
REMARK   11  A    between atoms: _24  and  _26
REMARK   12  A    between atoms: _26  and  _27
REMARK   13  A    between atoms: _26  and  _29
REMARK   14  A    between atoms: _31  and  _33
REMARK   15  A    between atoms: _33  and  _34
REMARK   16  A    between atoms: _33  and  _36
REMARK   17  A    between atoms: _36  and  _37
REMARK   18  A    between atoms: _39  and  _41
REMARK   19  A    between atoms: _41  and  _42
REMARK   20  A    between atoms: _41  and  _44
REMARK   21  A    between atoms: _44  and  _45
REMARK   22  A    between atoms: _47  and  _49
REMARK   23  A    between atoms: _49  and  _50
REMARK   24  A    between atoms: _52  and  _54
REMARK   25  A    between atoms: _54  and  _55
REMARK   26  A    between atoms: _54  and  _57
REMARK   27  A    between atoms: _57  and  _58
REMARK   28  A    between atoms: _61  and  _63
REMARK   29  A    between atoms: _63  and  _64
REMARK   30  A    between atoms: _66  and  _68
REMARK   31  A    between atoms: _68  and  _69
REMARK   32  A    between atoms: _68  and  _71
REMARK   33  A    between atoms: _71  and  _72
REMARK   34  A    between atoms: _75  and  _77
REMARK   35  A    between atoms: _77  and  _78
REMARK   36  A    between atoms: _77  and  _80
REMARK   37  A    between atoms: _80  and  _81
REMARK   38  A    between atoms: _86  and  _88
REMARK   39  A    between atoms: _88  and  _89
REMARK   40  A    between atoms: _88  and  _91
REMARK   41  A    between atoms: _91  and  _92
REMARK   42  A    between atoms: _95  and  _97
REMARK   43  A    between atoms: _97  and  _98
REMARK   44  A    between atoms: _97  and  _100
REMARK   45  A    between atoms: _100  and  _101
REMARK   46  A    between atoms: _104  and  _106
REMARK   47  A    between atoms: _106  and  _107
REMARK   48  A    between atoms: _106  and  _109
REMARK   49  A    between atoms: _109  and  _110
REMARK   50  A    between atoms: _110  and  _111
REMARK   51  A    between atoms: _111  and  _112
REMARK   52  A    between atoms: _121  and  _123
REMARK   53  A    between atoms: _123  and  _124
REMARK   54  A    between atoms: _123  and  _126
REMARK   55  A    between atoms: _126  and  _127
REMARK   56  A    between atoms: _130  and  _132
REMARK   57  A    between atoms: _132  and  _133
REMARK   58  A    between atoms: _132  and  _135
REMARK   59  A    between atoms: _135  and  _136
REMARK   60  A    between atoms: _139  and  _141
REMARK   61  A    between atoms: _141  and  _142
REMARK   62  A    between atoms: _141  and  _144
REMARK   63  A    between atoms: _144  and  _145
REMARK   64  A    between atoms: _145  and  _146
REMARK   65  A    between atoms: _146  and  _147
REMARK   66  A    between atoms: _156  and  _158
REMARK   67  A    between atoms: _158  and  _159
REMARK   68  A    between atoms: _158  and  _161
REMARK   69  A    between atoms: _161  and  _162
REMARK   70  A    between atoms: _165  and  _167
REMARK   71  A    between atoms: _167  and  _168
REMARK   72  A    between atoms: _167  and  _170
REMARK   73  A    between atoms: _170  and  _171
REMARK   74  A    between atoms: _171  and  _172
REMARK   75  A    between atoms: _177  and  _179
REMARK   76  A    between atoms: _179  and  _180
REMARK   77  A    between atoms: _179  and  _182
REMARK   78  A    between atoms: _182  and  _183
REMARK   79  A    between atoms: _186  and  _188
REMARK   80  A    between atoms: _188  and  _189
REMARK   81  A    between atoms: _188  and  _191
REMARK   82  A    between atoms: _191  and  _192
REMARK   83  A    between atoms: _195  and  _197
REMARK   84  A    between atoms: _197  and  _198
REMARK   85  A    between atoms: _197  and  _200
REMARK   86  A    between atoms: _203  and  _205
REMARK   87  A    between atoms: _205  and  _206
REMARK   88  A    between atoms: _205  and  _208
REMARK   89  A    between atoms: _208  and  _209
REMARK   90  A    between atoms: _209  and  _210
REMARK   91  A    between atoms: _210  and  _211
REMARK   92  A    between atoms: _220  and  _222
REMARK   93  A    between atoms: _222  and  _223
REMARK   94  A    between atoms: _222  and  _225
REMARK   95  A    between atoms: _225  and  _226
REMARK   96  A    between atoms: _229  and  _231
REMARK   97  A    between atoms: _231  and  _232
REMARK   98  A    between atoms: _231  and  _234
REMARK   99  A    between atoms: _234  and  _235
REMARK  100  A    between atoms: _237  and  _239
REMARK  101  A    between atoms: _239  and  _240
REMARK  102  A    between atoms: _239  and  _242
REMARK  103  A    between atoms: _245  and  _247
REMARK  104  A    between atoms: _247  and  _248
REMARK  105  A    between atoms: _247  and  _250
REMARK  106  A    between atoms: _252  and  _254
REMARK  107  A    between atoms: _254  and  _255
REMARK  108  A    between atoms: _254  and  _257
REMARK  109  A    between atoms: _257  and  _258
REMARK  110  A    between atoms: _263  and  _265
REMARK  111  A    between atoms: _265  and  _266
REMARK  112  A    between atoms: _269  and  _271
REMARK  113  A    between atoms: _271  and  _272
REMARK  114  A    between atoms: _274  and  _276
REMARK  115  A    between atoms: _276  and  _277
REMARK  116  A    between atoms: _276  and  _279
REMARK  117  A    between atoms: _279  and  _280
REMARK  118  A    between atoms: _283  and  _285
REMARK  119  A    between atoms: _285  and  _286
REMARK  120  A    between atoms: _288  and  _290
REMARK  121  A    between atoms: _290  and  _291
REMARK  122  A    between atoms: _290  and  _293
REMARK  123  A    between atoms: _293  and  _294
REMARK  124  A    between atoms: _297  and  _299
REMARK  125  A    between atoms: _299  and  _300
REMARK  126  A    between atoms: _299  and  _302
REMARK  127  A    between atoms: _302  and  _303
REMARK  128  A    between atoms: _306  and  _308
REMARK  129  A    between atoms: _308  and  _309
REMARK  130  A    between atoms: _308  and  _311
REMARK  131  A    between atoms: _311  and  _312
REMARK  132  A    between atoms: _314  and  _316
REMARK  133  A    between atoms: _316  and  _317
REMARK  134  A    between atoms: _316  and  _319
REMARK  135  A    between atoms: _319  and  _320
REMARK  136  A    between atoms: _323  and  _325
REMARK  137  A    between atoms: _325  and  _326
REMARK  138  A    between atoms: _325  and  _328
REMARK  139  A    between atoms: _331  and  _333
REMARK  140  A    between atoms: _333  and  _334
REMARK  141  A    between atoms: _333  and  _336
REMARK  142  A    between atoms: _336  and  _337
REMARK  143  A    between atoms: _342  and  _344
REMARK  144  A    between atoms: _344  and  _345
REMARK  145  A    between atoms: _347  and  _349
REMARK  146  A    between atoms: _349  and  _350
REMARK  147  A    between atoms: _349  and  _352
REMARK  148  A    between atoms: _352  and  _353
REMARK  149  A    between atoms: _353  and  _354
REMARK  150  A    between atoms: _354  and  _355
REMARK  151  A    between atoms: _364  and  _366
REMARK  152  A    between atoms: _366  and  _367
REMARK  153  A    between atoms: _366  and  _369
REMARK  154  A    between atoms: _369  and  _370
REMARK  155  A    between atoms: _370  and  _371
REMARK  156  A    between atoms: _373  and  _375
REMARK  157  A    between atoms: _375  and  _376
REMARK  158  A    between atoms: _375  and  _378
REMARK  159  A    between atoms: _378  and  _379
REMARK  160  A    between atoms: _382  and  _384
REMARK  161  A    between atoms: _384  and  _385
REMARK  162  A    between atoms: _387  and  _389
REMARK  163  A    between atoms: _389  and  _390
REMARK  164  A    between atoms: _389  and  _392
REMARK  165  A    between atoms: _392  and  _393
REMARK  166  A    between atoms: _395  and  _397
REMARK  167  A    between atoms: _397  and  _398
REMARK  168  A    between atoms: _397  and  _400
REMARK  169  A    between atoms: _403  and  _405
REMARK  170  A    between atoms: _405  and  _406
REMARK  171  A    between atoms: _408  and  _410
REMARK  172  A    between atoms: _410  and  _411
REMARK  173  A    between atoms: _413  and  _415
REMARK  174  A    between atoms: _415  and  _416
REMARK  175  A    between atoms: _415  and  _418
REMARK  176  A    between atoms: _418  and  _419
REMARK  177  A    between atoms: _422  and  _424
REMARK  178  A    between atoms: _424  and  _425
REMARK  179  A    between atoms: _424  and  _427
REMARK  180  A    between atoms: _427  and  _428
REMARK  181  A    between atoms: _428  and  _429
REMARK  182  A    between atoms: _431  and  _433
REMARK  183  A    between atoms: _433  and  _434
REMARK  184  A    between atoms: _436  and  _438
REMARK  185  A    between atoms: _438  and  _439
REMARK  186  A    between atoms: _438  and  _441
REMARK  187  A    between atoms: _441  and  _442
REMARK  188  A    between atoms: _446  and  _447
REMARK  189  A    between atoms: _452  and  _454
REMARK  190  A    between atoms: _454  and  _455
REMARK  191  A    between atoms: _454  and  _457
REMARK  192  A    between atoms: _457  and  _458
REMARK  193  A    between atoms: _463  and  _465
REMARK  194  A    between atoms: _465  and  _466
REMARK  195  A    between atoms: _465  and  _468
REMARK  196  A    between atoms: _468  and  _469
REMARK  197  A    between atoms: _474  and  _475
REMARK  198  A    between atoms: _477  and  _479
REMARK  199  A    between atoms: _479  and  _480
REMARK  200  A    between atoms: _479  and  _482
REMARK  201  A    between atoms: _484  and  _486
REMARK  202  A    between atoms: _486  and  _487
REMARK  203  A    between atoms: _486  and  _489
REMARK  204  A    between atoms: _489  and  _490
REMARK  205  A    between atoms: _490  and  _491
REMARK  206  A    between atoms: _491  and  _492
REMARK  207  A    between atoms: _492  and  _493
REMARK  208  A    between atoms: _497  and  _499
REMARK  209  A    between atoms: _499  and  _500
REMARK  210  A    between atoms: _499  and  _502
REMARK  211  A    between atoms: _502  and  _503
REMARK  212  A    between atoms: _503  and  _504
REMARK  213  A    between atoms: _507  and  _509
REMARK  214  A    between atoms: _509  and  _510
REMARK  215  A    between atoms: _509  and  _512
REMARK  216  A    between atoms: _514  and  _516
REMARK  217  A    between atoms: _516  and  _517
REMARK  218  A    between atoms: _520  and  _521
REMARK  219  A    between atoms: _526  and  _528
REMARK  220  A    between atoms: _528  and  _529
REMARK  221  A    between atoms: _528  and  _531
REMARK  222  A    between atoms: _534  and  _536
REMARK  223  A    between atoms: _536  and  _537
REMARK  224  A    between atoms: _536  and  _539
REMARK  225  A    between atoms: _539  and  _540
REMARK  226  A    between atoms: _543  and  _545
REMARK  227  A    between atoms: _545  and  _546
REMARK  228  A    between atoms: _545  and  _548
REMARK  229  A    between atoms: _548  and  _549
REMARK  230  A    between atoms: _555  and  _557
REMARK  231  A    between atoms: _557  and  _558
REMARK  232  A    between atoms: _557  and  _560
REMARK  233  A    between atoms: _560  and  _561
REMARK  234  A    between atoms: _561  and  _562
REMARK  235  A    between atoms: _564  and  _566
REMARK  236  A    between atoms: _566  and  _567
REMARK  237  A    between atoms: _566  and  _569
REMARK  238  A    between atoms: _569  and  _570
REMARK  239  A    between atoms: _570  and  _571
REMARK  240  A    between atoms: _574  and  _576
REMARK  241  A    between atoms: _576  and  _577
REMARK  242  A    between atoms: _576  and  _579
REMARK  243  A    between atoms: _579  and  _580
REMARK  244  A    between atoms: _580  and  _581
REMARK  245  A    between atoms: _581  and  _582
REMARK  246  A    between atoms: _582  and  _583
REMARK  247  A    between atoms: _587  and  _589
REMARK  248  A    between atoms: _589  and  _590
REMARK  249  A    between atoms: _589  and  _592
REMARK  250  A    between atoms: _592  and  _593
REMARK  251  A    between atoms: _598  and  _599
REMARK  252  A    between atoms: _601  and  _603
REMARK  253  A    between atoms: _603  and  _604
REMARK  254  A    between atoms: _603  and  _606
REMARK  255  A    between atoms: _606  and  _607
REMARK  256  A    between atoms: _610  and  _612
REMARK  257  A    between atoms: _612  and  _613
REMARK  258  A    between atoms: _612  and  _615
REMARK  259  A    between atoms: _615  and  _616
REMARK  260  A    between atoms: _621  and  _623
REMARK  261  A    between atoms: _623  and  _624
REMARK  262  A    between atoms: _623  and  _626
REMARK  263  A    between atoms: _626  and  _627
REMARK  264  A    between atoms: _629  and  _631
REMARK  265  A    between atoms: _631  and  _632
REMARK  266  A    between atoms: _631  and  _634
REMARK  267  A    between atoms: _634  and  _635
REMARK  268  A    between atoms: _635  and  _636
REMARK  269  A    between atoms: _636  and  _637
REMARK  270  A    between atoms: _637  and  _638
REMARK  271  A    between atoms: _642  and  _644
REMARK  272  A    between atoms: _644  and  _645
REMARK  273  A    between atoms: _644  and  _647
REMARK  274  A    between atoms: _647  and  _648
REMARK  275  A    between atoms: _648  and  _649
REMARK  276  A    between atoms: _654  and  _656
REMARK  277  A    between atoms: _656  and  _657
REMARK  278  A    between atoms: _656  and  _659
REMARK  279  A    between atoms: _662  and  _664
REMARK  280  A    between atoms: _664  and  _665
REMARK  281  A    between atoms: _664  and  _667
REMARK  282  A    between atoms: _667  and  _668
REMARK  283  A    between atoms: _674  and  _676
REMARK  284  A    between atoms: _676  and  _677
REMARK  285  A    between atoms: _680  and  _682
REMARK  286  A    between atoms: _682  and  _683
REMARK  287  A    between atoms: _682  and  _685
REMARK  288  A    between atoms: _685  and  _686
REMARK  289  A    between atoms: _689  and  _691
REMARK  290  A    between atoms: _691  and  _692
REMARK  291  A    between atoms: _691  and  _694
REMARK  292  A    between atoms: _694  and  _695
REMARK  293  A    between atoms: _695  and  _696
REMARK  294  A    between atoms: _696  and  _697
REMARK  295  A    between atoms: _706  and  _708
REMARK  296  A    between atoms: _708  and  _709
REMARK  297  A    between atoms: _708  and  _711
REMARK  298  A    between atoms: _711  and  _712
REMARK  299  A    between atoms: _718  and  _720
REMARK  300  A    between atoms: _720  and  _721
REMARK  301  A    between atoms: _720  and  _723
REMARK  302  A    between atoms: _723  and  _724
REMARK  303  A    between atoms: _727  and  _729
REMARK  304  A    between atoms: _729  and  _730
REMARK  305  A    between atoms: _729  and  _732
REMARK  306  A    between atoms: _732  and  _733
REMARK  307  A    between atoms: _738  and  _739
REMARK  308  A    between atoms: _741  and  _743
REMARK  309  A    between atoms: _743  and  _744
REMARK  310  A    between atoms: _747  and  _749
REMARK  311  A    between atoms: _749  and  _750
REMARK  312  A    between atoms: _749  and  _752
REMARK  313  A    between atoms: _752  and  _753
REMARK  314  A    between atoms: _753  and  _754
REMARK  315  A    between atoms: _756  and  _758
REMARK  316  A    between atoms: _758  and  _759
REMARK  317  A    between atoms: _758  and  _761
REMARK  318  A    between atoms: _761  and  _762
REMARK  319  A    between atoms: _767  and  _769
REMARK  320  A    between atoms: _769  and  _770
REMARK  321  A    between atoms: _769  and  _772
REMARK  322  A    between atoms: _772  and  _773
REMARK  323  A    between atoms: _773  and  _774
REMARK  324  A    between atoms: _774  and  _775
REMARK  325  A    between atoms: _784  and  _786
REMARK  326  A    between atoms: _786  and  _787
REMARK  327  A    between atoms: _786  and  _789
REMARK  328  A    between atoms: _789  and  _790
REMARK  329  A    between atoms: _790  and  _791
REMARK  330  A    between atoms: _794  and  _796
REMARK  331  A    between atoms: _796  and  _797
REMARK  332  A    between atoms: _796  and  _799
REMARK  333  A    between atoms: _802  and  _804
REMARK  334  A    between atoms: _804  and  _805
REMARK  335  A    between atoms: _804  and  _807
REMARK  336  A    between atoms: _807  and  _808
REMARK                            x       y       z     vdW  Elec       q    Type
REMARK                         _______ _______ _______ _____ _____    ______ ____
ROOT
ATOM      1  O   HOH     1      17.262  -7.997   3.773  0.00  0.00    +0.000 OA
ENDROOT
TORSDOF 0
REMARK  Name = ../refined-set-2016/1i5r/1i5r_pocket.pdb
REMARK  336 active torsions:
REMARK  status: ('A' for Active; 'I' for Inactive)
REMARK    1  A    between atoms: _1  and  _3
REMARK    2  A    between atoms: _3  and  _4
REMARK    3  A    between atoms: _3  and  _6
REMARK    4  A    between atoms: _6  and  _7
REMARK    5  A    between atoms: _10  and  _12
REMARK    6  A    between atoms: _12  and  _13
REMARK    7  A    between atoms: _12  and  _15
REMARK    8  A    between atoms: _15  and  _16
REMARK    9  A    between atoms: _19  and  _21
REMARK   10  A    between atoms: _21  and  _22
REMARK   11  A    between atoms: _24  and  _26
REMARK   12  A    between atoms: _26  and  _27
REMARK   13  A    between atoms: _26  and  _29
REMARK   14  A    between atoms: _31  and  _33
REMARK   15  A    between atoms: _33  and  _34
REMARK   16  A    between atoms: _33  and  _36
REMARK   17  A    between atoms: _36  and  _37
REMARK   18  A    between atoms: _39  and  _41
REMARK   19  A    between atoms: _41  and  _42
REMARK   20  A    between atoms: _41  and  _44
REMARK   21  A    between atoms: _44  and  _45
REMARK   22  A    between atoms: _47  and  _49
REMARK   23  A    between atoms: _49  and  _50
REMARK   24  A    between atoms: _52  and  _54
REMARK   25  A    between atoms: _54  and  _55
REMARK   26  A    between atoms: _54  and  _57
REMARK   27  A    between atoms: _57  and  _58
REMARK   28  A    between atoms: _61  and  _63
REMARK   29  A    between atoms: _63  and  _64
REMARK   30  A    between atoms: _66  and  _68
REMARK   31  A    between atoms: _68  and  _69
REMARK   32  A    between atoms: _68  and  _71
REMARK   33  A    between atoms: _71  and  _72
REMARK   34  A    between atoms: _75  and  _77
REMARK   35  A    between atoms: _77  and  _78
REMARK   36  A    between atoms: _77  and  _80
REMARK   37  A    between atoms: _80  and  _81
REMARK   38  A    between atoms: _86  and  _88
REMARK   39  A    between atoms: _88  and  _89
REMARK   40  A    between atoms: _88  and  _91
REMARK   41  A    between atoms: _91  and  _92
REMARK   42  A    between atoms: _95  and  _97
REMARK   43  A    between atoms: _97  and  _98
REMARK   44  A    between atoms: _97  and  _100
REMARK   45  A    between atoms: _100  and  _101
REMARK   46  A    between atoms: _104  and  _106
REMARK   47  A    between atoms: _106  and  _107
REMARK   48  A    between atoms: _106  and  _109
REMARK   49  A    between atoms: _109  and  _110
REMARK   50  A    between atoms: _110  and  _111
REMARK   51  A    between atoms: _111  and  _112
REMARK   52  A    between atoms: _121  and  _123
REMARK   53  A    between atoms: _123  and  _124
REMARK   54  A    between atoms: _123  and  _126
REMARK   55  A    between atoms: _126  and  _127
REMARK   56  A    between atoms: _130  and  _132
REMARK   57  A    between atoms: _132  and  _133
REMARK   58  A    between atoms: _132  and  _135
REMARK   59  A    between atoms: _135  and  _136
REMARK   60  A    between atoms: _139  and  _141
REMARK   61  A    between atoms: _141  and  _142
REMARK   62  A    between atoms: _141  and  _144
REMARK   63  A    between atoms: _144  and  _145
REMARK   64  A    between atoms: _145  and  _146
REMARK   65  A    between atoms: _146  and  _147
REMARK   66  A    between atoms: _156  and  _158
REMARK   67  A    between atoms: _158  and  _159
REMARK   68  A    between atoms: _158  and  _161
REMARK   69  A    between atoms: _161  and  _162
REMARK   70  A    between atoms: _165  and  _167
REMARK   71  A    between atoms: _167  and  _168
REMARK   72  A    between atoms: _167  and  _170
REMARK   73  A    between atoms: _170  and  _171
REMARK   74  A    between atoms: _171  and  _172
REMARK   75  A    between atoms: _177  and  _179
REMARK   76  A    between atoms: _179  and  _180
REMARK   77  A    between atoms: _179  and  _182
REMARK   78  A    between atoms: _182  and  _183
REMARK   79  A    between atoms: _186  and  _188
REMARK   80  A    between atoms: _188  and  _189
REMARK   81  A    between atoms: _188  and  _191
REMARK   82  A    between atoms: _191  and  _192
REMARK   83  A    between atoms: _195  and  _197
REMARK   84  A    between atoms: _197  and  _198
REMARK   85  A    between atoms: _197  and  _200
REMARK   86  A    between atoms: _203  and  _205
REMARK   87  A    between atoms: _205  and  _206
REMARK   88  A    between atoms: _205  and  _208
REMARK   89  A    between atoms: _208  and  _209
REMARK   90  A    between atoms: _209  and  _210
REMARK   91  A    between atoms: _210  and  _211
REMARK   92  A    between atoms: _220  and  _222
REMARK   93  A    between atoms: _222  and  _223
REMARK   94  A    between atoms: _222  and  _225
REMARK   95  A    between atoms: _225  and  _226
REMARK   96  A    between atoms: _229  and  _231
REMARK   97  A    between atoms: _231  and  _232
REMARK   98  A    between atoms: _231  and  _234
REMARK   99  A    between atoms: _234  and  _235
REMARK  100  A    between atoms: _237  and  _239
REMARK  101  A    between atoms: _239  and  _240
REMARK  102  A    between atoms: _239  and  _242
REMARK  103  A    between atoms: _245  and  _247
REMARK  104  A    between atoms: _247  and  _248
REMARK  105  A    between atoms: _247  and  _250
REMARK  106  A    between atoms: _252  and  _254
REMARK  107  A    between atoms: _254  and  _255
REMARK  108  A    between atoms: _254  and  _257
REMARK  109  A    between atoms: _257  and  _258
REMARK  110  A    between atoms: _263  and  _265
REMARK  111  A    between atoms: _265  and  _266
REMARK  112  A    between atoms: _269  and  _271
REMARK  113  A    between atoms: _271  and  _272
REMARK  114  A    between atoms: _274  and  _276
REMARK  115  A    between atoms: _276  and  _277
REMARK  116  A    between atoms: _276  and  _279
REMARK  117  A    between atoms: _279  and  _280
REMARK  118  A    between atoms: _283  and  _285
REMARK  119  A    between atoms: _285  and  _286
REMARK  120  A    between atoms: _288  and  _290
REMARK  121  A    between atoms: _290  and  _291
REMARK  122  A    between atoms: _290  and  _293
REMARK  123  A    between atoms: _293  and  _294
REMARK  124  A    between atoms: _297  and  _299
REMARK  125  A    between atoms: _299  and  _300
REMARK  126  A    between atoms: _299  and  _302
REMARK  127  A    between atoms: _302  and  _303
REMARK  128  A    between atoms: _306  and  _308
REMARK  129  A    between atoms: _308  and  _309
REMARK  130  A    between atoms: _308  and  _311
REMARK  131  A    between atoms: _311  and  _312
REMARK  132  A    between atoms: _314  and  _316
REMARK  133  A    between atoms: _316  and  _317
REMARK  134  A    between atoms: _316  and  _319
REMARK  135  A    between atoms: _319  and  _320
REMARK  136  A    between atoms: _323  and  _325
REMARK  137  A    between atoms: _325  and  _326
REMARK  138  A    between atoms: _325  and  _328
REMARK  139  A    between atoms: _331  and  _333
REMARK  140  A    between atoms: _333  and  _334
REMARK  141  A    between atoms: _333  and  _336
REMARK  142  A    between atoms: _336  and  _337
REMARK  143  A    between atoms: _342  and  _344
REMARK  144  A    between atoms: _344  and  _345
REMARK  145  A    between atoms: _347  and  _349
REMARK  146  A    between atoms: _349  and  _350
REMARK  147  A    between atoms: _349  and  _352
REMARK  148  A    between atoms: _352  and  _353
REMARK  149  A    between atoms: _353  and  _354
REMARK  150  A    between atoms: _354  and  _355
REMARK  151  A    between atoms: _364  and  _366
REMARK  152  A    between atoms: _366  and  _367
REMARK  153  A    between atoms: _366  and  _369
REMARK  154  A    between atoms: _369  and  _370
REMARK  155  A    between atoms: _370  and  _371
REMARK  156  A    between atoms: _373  and  _375
REMARK  157  A    between atoms: _375  and  _376
REMARK  158  A    between atoms: _375  and  _378
REMARK  159  A    between atoms: _378  and  _379
REMARK  160  A    between atoms: _382  and  _384
REMARK  161  A    between atoms: _384  and  _385
REMARK  162  A    between atoms: _387  and  _389
REMARK  163  A    between atoms: _389  and  _390
REMARK  164  A    between atoms: _389  and  _392
REMARK  165  A    between atoms: _392  and  _393
REMARK  166  A    between atoms: _395  and  _397
REMARK  167  A    between atoms: _397  and  _398
REMARK  168  A    between atoms: _397  and  _400
REMARK  169  A    between atoms: _403  and  _405
REMARK  170  A    between atoms: _405  and  _406
REMARK  171  A    between atoms: _408  and  _410
REMARK  172  A    between atoms: _410  and  _411
REMARK  173  A    between atoms: _413  and  _415
REMARK  174  A    between atoms: _415  and  _416
REMARK  175  A    between atoms: _415  and  _418
REMARK  176  A    between atoms: _418  and  _419
REMARK  177  A    between atoms: _422  and  _424
REMARK  178  A    between atoms: _424  and  _425
REMARK  179  A    between atoms: _424  and  _427
REMARK  180  A    between atoms: _427  and  _428
REMARK  181  A    between atoms: _428  and  _429
REMARK  182  A    between atoms: _431  and  _433
REMARK  183  A    between atoms: _433  and  _434
REMARK  184  A    between atoms: _436  and  _438
REMARK  185  A    between atoms: _438  and  _439
REMARK  186  A    between atoms: _438  and  _441
REMARK  187  A    between atoms: _441  and  _442
REMARK  188  A    between atoms: _446  and  _447
REMARK  189  A    between atoms: _452  and  _454
REMARK  190  A    between atoms: _454  and  _455
REMARK  191  A    between atoms: _454  and  _457
REMARK  192  A    between atoms: _457  and  _458
REMARK  193  A    between atoms: _463  and  _465
REMARK  194  A    between atoms: _465  and  _466
REMARK  195  A    between atoms: _465  and  _468
REMARK  196  A    between atoms: _468  and  _469
REMARK  197  A    between atoms: _474  and  _475
REMARK  198  A    between atoms: _477  and  _479
REMARK  199  A    between atoms: _479  and  _480
REMARK  200  A    between atoms: _479  and  _482
REMARK  201  A    between atoms: _484  and  _486
REMARK  202  A    between atoms: _486  and  _487
REMARK  203  A    between atoms: _486  and  _489
REMARK  204  A    between atoms: _489  and  _490
REMARK  205  A    between atoms: _490  and  _491
REMARK  206  A    between atoms: _491  and  _492
REMARK  207  A    between atoms: _492  and  _493
REMARK  208  A    between atoms: _497  and  _499
REMARK  209  A    between atoms: _499  and  _500
REMARK  210  A    between atoms: _499  and  _502
REMARK  211  A    between atoms: _502  and  _503
REMARK  212  A    between atoms: _503  and  _504
REMARK  213  A    between atoms: _507  and  _509
REMARK  214  A    between atoms: _509  and  _510
REMARK  215  A    between atoms: _509  and  _512
REMARK  216  A    between atoms: _514  and  _516
REMARK  217  A    between atoms: _516  and  _517
REMARK  218  A    between atoms: _520  and  _521
REMARK  219  A    between atoms: _526  and  _528
REMARK  220  A    between atoms: _528  and  _529
REMARK  221  A    between atoms: _528  and  _531
REMARK  222  A    between atoms: _534  and  _536
REMARK  223  A    between atoms: _536  and  _537
REMARK  224  A    between atoms: _536  and  _539
REMARK  225  A    between atoms: _539  and  _540
REMARK  226  A    between atoms: _543  and  _545
REMARK  227  A    between atoms: _545  and  _546
REMARK  228  A    between atoms: _545  and  _548
REMARK  229  A    between atoms: _548  and  _549
REMARK  230  A    between atoms: _555  and  _557
REMARK  231  A    between atoms: _557  and  _558
REMARK  232  A    between atoms: _557  and  _560
REMARK  233  A    between atoms: _560  and  _561
REMARK  234  A    between atoms: _561  and  _562
REMARK  235  A    between atoms: _564  and  _566
REMARK  236  A    between atoms: _566  and  _567
REMARK  237  A    between atoms: _566  and  _569
REMARK  238  A    between atoms: _569  and  _570
REMARK  239  A    between atoms: _570  and  _571
REMARK  240  A    between atoms: _574  and  _576
REMARK  241  A    between atoms: _576  and  _577
REMARK  242  A    between atoms: _576  and  _579
REMARK  243  A    between atoms: _579  and  _580
REMARK  244  A    between atoms: _580  and  _581
REMARK  245  A    between atoms: _581  and  _582
REMARK  246  A    between atoms: _582  and  _583
REMARK  247  A    between atoms: _587  and  _589
REMARK  248  A    between atoms: _589  and  _590
REMARK  249  A    between atoms: _589  and  _592
REMARK  250  A    between atoms: _592  and  _593
REMARK  251  A    between atoms: _598  and  _599
REMARK  252  A    between atoms: _601  and  _603
REMARK  253  A    between atoms: _603  and  _604
REMARK  254  A    between atoms: _603  and  _606
REMARK  255  A    between atoms: _606  and  _607
REMARK  256  A    between atoms: _610  and  _612
REMARK  257  A    between atoms: _612  and  _613
REMARK  258  A    between atoms: _612  and  _615
REMARK  259  A    between atoms: _615  and  _616
REMARK  260  A    between atoms: _621  and  _623
REMARK  261  A    between atoms: _623  and  _624
REMARK  262  A    between atoms: _623  and  _626
REMARK  263  A    between atoms: _626  and  _627
REMARK  264  A    between atoms: _629  and  _631
REMARK  265  A    between atoms: _631  and  _632
REMARK  266  A    between atoms: _631  and  _634
REMARK  267  A    between atoms: _634  and  _635
REMARK  268  A    between atoms: _635  and  _636
REMARK  269  A    between atoms: _636  and  _637
REMARK  270  A    between atoms: _637  and  _638
REMARK  271  A    between atoms: _642  and  _644
REMARK  272  A    between atoms: _644  and  _645
REMARK  273  A    between atoms: _644  and  _647
REMARK  274  A    between atoms: _647  and  _648
REMARK  275  A    between atoms: _648  and  _649
REMARK  276  A    between atoms: _654  and  _656
REMARK  277  A    between atoms: _656  and  _657
REMARK  278  A    between atoms: _656  and  _659
REMARK  279  A    between atoms: _662  and  _664
REMARK  280  A    between atoms: _664  and  _665
REMARK  281  A    between atoms: _664  and  _667
REMARK  282  A    between atoms: _667  and  _668
REMARK  283  A    between atoms: _674  and  _676
REMARK  284  A    between atoms: _676  and  _677
REMARK  285  A    between atoms: _680  and  _682
REMARK  286  A    between atoms: _682  and  _683
REMARK  287  A    between atoms: _682  and  _685
REMARK  288  A    between atoms: _685  and  _686
REMARK  289  A    between atoms: _689  and  _691
REMARK  290  A    between atoms: _691  and  _692
REMARK  291  A    between atoms: _691  and  _694
REMARK  292  A    between atoms: _694  and  _695
REMARK  293  A    between atoms: _695  and  _696
REMARK  294  A    between atoms: _696  and  _697
REMARK  295  A    between atoms: _706  and  _708
REMARK  296  A    between atoms: _708  and  _709
REMARK  297  A    between atoms: _708  and  _711
REMARK  298  A    between atoms: _711  and  _712
REMARK  299  A    between atoms: _718  and  _720
REMARK  300  A    between atoms: _720  and  _721
REMARK  301  A    between atoms: _720  and  _723
REMARK  302  A    between atoms: _723  and  _724
REMARK  303  A    between atoms: _727  and  _729
REMARK  304  A    between atoms: _729  and  _730
REMARK  305  A    between atoms: _729  and  _732
REMARK  306  A    between atoms: _732  and  _733
REMARK  307  A    between atoms: _738  and  _739
REMARK  308  A    between atoms: _741  and  _743
REMARK  309  A    between atoms: _743  and  _744
REMARK  310  A    between atoms: _747  and  _749
REMARK  311  A    between atoms: _749  and  _750
REMARK  312  A    between atoms: _749  and  _752
REMARK  313  A    between atoms: _752  and  _753
REMARK  314  A    between atoms: _753  and  _754
REMARK  315  A    between atoms: _756  and  _758
REMARK  316  A    between atoms: _758  and  _759
REMARK  317  A    between atoms: _758  and  _761
REMARK  318  A    between atoms: _761  and  _762
REMARK  319  A    between atoms: _767  and  _769
REMARK  320  A    between atoms: _769  and  _770
REMARK  321  A    between atoms: _769  and  _772
REMARK  322  A    between atoms: _772  and  _773
REMARK  323  A    between atoms: _773  and  _774
REMARK  324  A    between atoms: _774  and  _775
REMARK  325  A    between atoms: _784  and  _786
REMARK  326  A    between atoms: _786  and  _787
REMARK  327  A    between atoms: _786  and  _789
REMARK  328  A    between atoms: _789  and  _790
REMARK  329  A    between atoms: _790  and  _791
REMARK  330  A    between atoms: _794  and  _796
REMARK  331  A    between atoms: _796  and  _797
REMARK  332  A    between atoms: _796  and  _799
REMARK  333  A    between atoms: _802  and  _804
REMARK  334  A    between atoms: _804  and  _805
REMARK  335  A    between atoms: _804  and  _807
REMARK  336  A    between atoms: _807  and  _808
REMARK                            x       y       z     vdW  Elec       q    Type
REMARK                         _______ _______ _______ _____ _____    ______ ____
ROOT
ATOM      1  O   HOH     1       5.457 -13.560   2.337  0.00  0.00    +0.000 OA
ENDROOT
TORSDOF 0
REMARK  Name = ../refined-set-2016/1i5r/1i5r_pocket.pdb
REMARK  336 active torsions:
REMARK  status: ('A' for Active; 'I' for Inactive)
REMARK    1  A    between atoms: _1  and  _3
REMARK    2  A    between atoms: _3  and  _4
REMARK    3  A    between atoms: _3  and  _6
REMARK    4  A    between atoms: _6  and  _7
REMARK    5  A    between atoms: _10  and  _12
REMARK    6  A    between atoms: _12  and  _13
REMARK    7  A    between atoms: _12  and  _15
REMARK    8  A    between atoms: _15  and  _16
REMARK    9  A    between atoms: _19  and  _21
REMARK   10  A    between atoms: _21  and  _22
REMARK   11  A    between atoms: _24  and  _26
REMARK   12  A    between atoms: _26  and  _27
REMARK   13  A    between atoms: _26  and  _29
REMARK   14  A    between atoms: _31  and  _33
REMARK   15  A    between atoms: _33  and  _34
REMARK   16  A    between atoms: _33  and  _36
REMARK   17  A    between atoms: _36  and  _37
REMARK   18  A    between atoms: _39  and  _41
REMARK   19  A    between atoms: _41  and  _42
REMARK   20  A    between atoms: _41  and  _44
REMARK   21  A    between atoms: _44  and  _45
REMARK   22  A    between atoms: _47  and  _49
REMARK   23  A    between atoms: _49  and  _50
REMARK   24  A    between atoms: _52  and  _54
REMARK   25  A    between atoms: _54  and  _55
REMARK   26  A    between atoms: _54  and  _57
REMARK   27  A    between atoms: _57  and  _58
REMARK   28  A    between atoms: _61  and  _63
REMARK   29  A    between atoms: _63  and  _64
REMARK   30  A    between atoms: _66  and  _68
REMARK   31  A    between atoms: _68  and  _69
REMARK   32  A    between atoms: _68  and  _71
REMARK   33  A    between atoms: _71  and  _72
REMARK   34  A    between atoms: _75  and  _77
REMARK   35  A    between atoms: _77  and  _78
REMARK   36  A    between atoms: _77  and  _80
REMARK   37  A    between atoms: _80  and  _81
REMARK   38  A    between atoms: _86  and  _88
REMARK   39  A    between atoms: _88  and  _89
REMARK   40  A    between atoms: _88  and  _91
REMARK   41  A    between atoms: _91  and  _92
REMARK   42  A    between atoms: _95  and  _97
REMARK   43  A    between atoms: _97  and  _98
REMARK   44  A    between atoms: _97  and  _100
REMARK   45  A    between atoms: _100  and  _101
REMARK   46  A    between atoms: _104  and  _106
REMARK   47  A    between atoms: _106  and  _107
REMARK   48  A    between atoms: _106  and  _109
REMARK   49  A    between atoms: _109  and  _110
REMARK   50  A    between atoms: _110  and  _111
REMARK   51  A    between atoms: _111  and  _112
REMARK   52  A    between atoms: _121  and  _123
REMARK   53  A    between atoms: _123  and  _124
REMARK   54  A    between atoms: _123  and  _126
REMARK   55  A    between atoms: _126  and  _127
REMARK   56  A    between atoms: _130  and  _132
REMARK   57  A    between atoms: _132  and  _133
REMARK   58  A    between atoms: _132  and  _135
REMARK   59  A    between atoms: _135  and  _136
REMARK   60  A    between atoms: _139  and  _141
REMARK   61  A    between atoms: _141  and  _142
REMARK   62  A    between atoms: _141  and  _144
REMARK   63  A    between atoms: _144  and  _145
REMARK   64  A    between atoms: _145  and  _146
REMARK   65  A    between atoms: _146  and  _147
REMARK   66  A    between atoms: _156  and  _158
REMARK   67  A    between atoms: _158  and  _159
REMARK   68  A    between atoms: _158  and  _161
REMARK   69  A    between atoms: _161  and  _162
REMARK   70  A    between atoms: _165  and  _167
REMARK   71  A    between atoms: _167  and  _168
REMARK   72  A    between atoms: _167  and  _170
REMARK   73  A    between atoms: _170  and  _171
REMARK   74  A    between atoms: _171  and  _172
REMARK   75  A    between atoms: _177  and  _179
REMARK   76  A    between atoms: _179  and  _180
REMARK   77  A    between atoms: _179  and  _182
REMARK   78  A    between atoms: _182  and  _183
REMARK   79  A    between atoms: _186  and  _188
REMARK   80  A    between atoms: _188  and  _189
REMARK   81  A    between atoms: _188  and  _191
REMARK   82  A    between atoms: _191  and  _192
REMARK   83  A    between atoms: _195  and  _197
REMARK   84  A    between atoms: _197  and  _198
REMARK   85  A    between atoms: _197  and  _200
REMARK   86  A    between atoms: _203  and  _205
REMARK   87  A    between atoms: _205  and  _206
REMARK   88  A    between atoms: _205  and  _208
REMARK   89  A    between atoms: _208  and  _209
REMARK   90  A    between atoms: _209  and  _210
REMARK   91  A    between atoms: _210  and  _211
REMARK   92  A    between atoms: _220  and  _222
REMARK   93  A    between atoms: _222  and  _223
REMARK   94  A    between atoms: _222  and  _225
REMARK   95  A    between atoms: _225  and  _226
REMARK   96  A    between atoms: _229  and  _231
REMARK   97  A    between atoms: _231  and  _232
REMARK   98  A    between atoms: _231  and  _234
REMARK   99  A    between atoms: _234  and  _235
REMARK  100  A    between atoms: _237  and  _239
REMARK  101  A    between atoms: _239  and  _240
REMARK  102  A    between atoms: _239  and  _242
REMARK  103  A    between atoms: _245  and  _247
REMARK  104  A    between atoms: _247  and  _248
REMARK  105  A    between atoms: _247  and  _250
REMARK  106  A    between atoms: _252  and  _254
REMARK  107  A    between atoms: _254  and  _255
REMARK  108  A    between atoms: _254  and  _257
REMARK  109  A    between atoms: _257  and  _258
REMARK  110  A    between atoms: _263  and  _265
REMARK  111  A    between atoms: _265  and  _266
REMARK  112  A    between atoms: _269  and  _271
REMARK  113  A    between atoms: _271  and  _272
REMARK  114  A    between atoms: _274  and  _276
REMARK  115  A    between atoms: _276  and  _277
REMARK  116  A    between atoms: _276  and  _279
REMARK  117  A    between atoms: _279  and  _280
REMARK  118  A    between atoms: _283  and  _285
REMARK  119  A    between atoms: _285  and  _286
REMARK  120  A    between atoms: _288  and  _290
REMARK  121  A    between atoms: _290  and  _291
REMARK  122  A    between atoms: _290  and  _293
REMARK  123  A    between atoms: _293  and  _294
REMARK  124  A    between atoms: _297  and  _299
REMARK  125  A    between atoms: _299  and  _300
REMARK  126  A    between atoms: _299  and  _302
REMARK  127  A    between atoms: _302  and  _303
REMARK  128  A    between atoms: _306  and  _308
REMARK  129  A    between atoms: _308  and  _309
REMARK  130  A    between atoms: _308  and  _311
REMARK  131  A    between atoms: _311  and  _312
REMARK  132  A    between atoms: _314  and  _316
REMARK  133  A    between atoms: _316  and  _317
REMARK  134  A    between atoms: _316  and  _319
REMARK  135  A    between atoms: _319  and  _320
REMARK  136  A    between atoms: _323  and  _325
REMARK  137  A    between atoms: _325  and  _326
REMARK  138  A    between atoms: _325  and  _328
REMARK  139  A    between atoms: _331  and  _333
REMARK  140  A    between atoms: _333  and  _334
REMARK  141  A    between atoms: _333  and  _336
REMARK  142  A    between atoms: _336  and  _337
REMARK  143  A    between atoms: _342  and  _344
REMARK  144  A    between atoms: _344  and  _345
REMARK  145  A    between atoms: _347  and  _349
REMARK  146  A    between atoms: _349  and  _350
REMARK  147  A    between atoms: _349  and  _352
REMARK  148  A    between atoms: _352  and  _353
REMARK  149  A    between atoms: _353  and  _354
REMARK  150  A    between atoms: _354  and  _355
REMARK  151  A    between atoms: _364  and  _366
REMARK  152  A    between atoms: _366  and  _367
REMARK  153  A    between atoms: _366  and  _369
REMARK  154  A    between atoms: _369  and  _370
REMARK  155  A    between atoms: _370  and  _371
REMARK  156  A    between atoms: _373  and  _375
REMARK  157  A    between atoms: _375  and  _376
REMARK  158  A    between atoms: _375  and  _378
REMARK  159  A    between atoms: _378  and  _379
REMARK  160  A    between atoms: _382  and  _384
REMARK  161  A    between atoms: _384  and  _385
REMARK  162  A    between atoms: _387  and  _389
REMARK  163  A    between atoms: _389  and  _390
REMARK  164  A    between atoms: _389  and  _392
REMARK  165  A    between atoms: _392  and  _393
REMARK  166  A    between atoms: _395  and  _397
REMARK  167  A    between atoms: _397  and  _398
REMARK  168  A    between atoms: _397  and  _400
REMARK  169  A    between atoms: _403  and  _405
REMARK  170  A    between atoms: _405  and  _406
REMARK  171  A    between atoms: _408  and  _410
REMARK  172  A    between atoms: _410  and  _411
REMARK  173  A    between atoms: _413  and  _415
REMARK  174  A    between atoms: _415  and  _416
REMARK  175  A    between atoms: _415  and  _418
REMARK  176  A    between atoms: _418  and  _419
REMARK  177  A    between atoms: _422  and  _424
REMARK  178  A    between atoms: _424  and  _425
REMARK  179  A    between atoms: _424  and  _427
REMARK  180  A    between atoms: _427  and  _428
REMARK  181  A    between atoms: _428  and  _429
REMARK  182  A    between atoms: _431  and  _433
REMARK  183  A    between atoms: _433  and  _434
REMARK  184  A    between atoms: _436  and  _438
REMARK  185  A    between atoms: _438  and  _439
REMARK  186  A    between atoms: _438  and  _441
REMARK  187  A    between atoms: _441  and  _442
REMARK  188  A    between atoms: _446  and  _447
REMARK  189  A    between atoms: _452  and  _454
REMARK  190  A    between atoms: _454  and  _455
REMARK  191  A    between atoms: _454  and  _457
REMARK  192  A    between atoms: _457  and  _458
REMARK  193  A    between atoms: _463  and  _465
REMARK  194  A    between atoms: _465  and  _466
REMARK  195  A    between atoms: _465  and  _468
REMARK  196  A    between atoms: _468  and  _469
REMARK  197  A    between atoms: _474  and  _475
REMARK  198  A    between atoms: _477  and  _479
REMARK  199  A    between atoms: _479  and  _480
REMARK  200  A    between atoms: _479  and  _482
REMARK  201  A    between atoms: _484  and  _486
REMARK  202  A    between atoms: _486  and  _487
REMARK  203  A    between atoms: _486  and  _489
REMARK  204  A    between atoms: _489  and  _490
REMARK  205  A    between atoms: _490  and  _491
REMARK  206  A    between atoms: _491  and  _492
REMARK  207  A    between atoms: _492  and  _493
REMARK  208  A    between atoms: _497  and  _499
REMARK  209  A    between atoms: _499  and  _500
REMARK  210  A    between atoms: _499  and  _502
REMARK  211  A    between atoms: _502  and  _503
REMARK  212  A    between atoms: _503  and  _504
REMARK  213  A    between atoms: _507  and  _509
REMARK  214  A    between atoms: _509  and  _510
REMARK  215  A    between atoms: _509  and  _512
REMARK  216  A    between atoms: _514  and  _516
REMARK  217  A    between atoms: _516  and  _517
REMARK  218  A    between atoms: _520  and  _521
REMARK  219  A    between atoms: _526  and  _528
REMARK  220  A    between atoms: _528  and  _529
REMARK  221  A    between atoms: _528  and  _531
REMARK  222  A    between atoms: _534  and  _536
REMARK  223  A    between atoms: _536  and  _537
REMARK  224  A    between atoms: _536  and  _539
REMARK  225  A    between atoms: _539  and  _540
REMARK  226  A    between atoms: _543  and  _545
REMARK  227  A    between atoms: _545  and  _546
REMARK  228  A    between atoms: _545  and  _548
REMARK  229  A    between atoms: _548  and  _549
REMARK  230  A    between atoms: _555  and  _557
REMARK  231  A    between atoms: _557  and  _558
REMARK  232  A    between atoms: _557  and  _560
REMARK  233  A    between atoms: _560  and  _561
REMARK  234  A    between atoms: _561  and  _562
REMARK  235  A    between atoms: _564  and  _566
REMARK  236  A    between atoms: _566  and  _567
REMARK  237  A    between atoms: _566  and  _569
REMARK  238  A    between atoms: _569  and  _570
REMARK  239  A    between atoms: _570  and  _571
REMARK  240  A    between atoms: _574  and  _576
REMARK  241  A    between atoms: _576  and  _577
REMARK  242  A    between atoms: _576  and  _579
REMARK  243  A    between atoms: _579  and  _580
REMARK  244  A    between atoms: _580  and  _581
REMARK  245  A    between atoms: _581  and  _582
REMARK  246  A    between atoms: _582  and  _583
REMARK  247  A    between atoms: _587  and  _589
REMARK  248  A    between atoms: _589  and  _590
REMARK  249  A    between atoms: _589  and  _592
REMARK  250  A    between atoms: _592  and  _593
REMARK  251  A    between atoms: _598  and  _599
REMARK  252  A    between atoms: _601  and  _603
REMARK  253  A    between atoms: _603  and  _604
REMARK  254  A    between atoms: _603  and  _606
REMARK  255  A    between atoms: _606  and  _607
REMARK  256  A    between atoms: _610  and  _612
REMARK  257  A    between atoms: _612  and  _613
REMARK  258  A    between atoms: _612  and  _615
REMARK  259  A    between atoms: _615  and  _616
REMARK  260  A    between atoms: _621  and  _623
REMARK  261  A    between atoms: _623  and  _624
REMARK  262  A    between atoms: _623  and  _626
REMARK  263  A    between atoms: _626  and  _627
REMARK  264  A    between atoms: _629  and  _631
REMARK  265  A    between atoms: _631  and  _632
REMARK  266  A    between atoms: _631  and  _634
REMARK  267  A    between atoms: _634  and  _635
REMARK  268  A    between atoms: _635  and  _636
REMARK  269  A    between atoms: _636  and  _637
REMARK  270  A    between atoms: _637  and  _638
REMARK  271  A    between atoms: _642  and  _644
REMARK  272  A    between atoms: _644  and  _645
REMARK  273  A    between atoms: _644  and  _647
REMARK  274  A    between atoms: _647  and  _648
REMARK  275  A    between atoms: _648  and  _649
REMARK  276  A    between atoms: _654  and  _656
REMARK  277  A    between atoms: _656  and  _657
REMARK  278  A    between atoms: _656  and  _659
REMARK  279  A    between atoms: _662  and  _664
REMARK  280  A    between atoms: _664  and  _665
REMARK  281  A    between atoms: _664  and  _667
REMARK  282  A    between atoms: _667  and  _668
REMARK  283  A    between atoms: _674  and  _676
REMARK  284  A    between atoms: _676  and  _677
REMARK  285  A    between atoms: _680  and  _682
REMARK  286  A    between atoms: _682  and  _683
REMARK  287  A    between atoms: _682  and  _685
REMARK  288  A    between atoms: _685  and  _686
REMARK  289  A    between atoms: _689  and  _691
REMARK  290  A    between atoms: _691  and  _692
REMARK  291  A    between atoms: _691  and  _694
REMARK  292  A    between atoms: _694  and  _695
REMARK  293  A    between atoms: _695  and  _696
REMARK  294  A    between atoms: _696  and  _697
REMARK  295  A    between atoms: _706  and  _708
REMARK  296  A    between atoms: _708  and  _709
REMARK  297  A    between atoms: _708  and  _711
REMARK  298  A    between atoms: _711  and  _712
REMARK  299  A    between atoms: _718  and  _720
REMARK  300  A    between atoms: _720  and  _721
REMARK  301  A    between atoms: _720  and  _723
REMARK  302  A    between atoms: _723  and  _724
REMARK  303  A    between atoms: _727  and  _729
REMARK  304  A    between atoms: _729  and  _730
REMARK  305  A    between atoms: _729  and  _732
REMARK  306  A    between atoms: _732  and  _733
REMARK  307  A    between atoms: _738  and  _739
REMARK  308  A    between atoms: _741  and  _743
REMARK  309  A    between atoms: _743  and  _744
REMARK  310  A    between atoms: _747  and  _749
REMARK  311  A    between atoms: _749  and  _750
REMARK  312  A    between atoms: _749  and  _752
REMARK  313  A    between atoms: _752  and  _753
REMARK  314  A    between atoms: _753  and  _754
REMARK  315  A    between atoms: _756  and  _758
REMARK  316  A    between atoms: _758  and  _759
REMARK  317  A    between atoms: _758  and  _761
REMARK  318  A    between atoms: _761  and  _762
REMARK  319  A    between atoms: _767  and  _769
REMARK  320  A    between atoms: _769  and  _770
REMARK  321  A    between atoms: _769  and  _772
REMARK  322  A    between atoms: _772  and  _773
REMARK  323  A    between atoms: _773  and  _774
REMARK  324  A    between atoms: _774  and  _775
REMARK  325  A    between atoms: _784  and  _786
REMARK  326  A    between atoms: _786  and  _787
REMARK  327  A    between atoms: _786  and  _789
REMARK  328  A    between atoms: _789  and  _790
REMARK  329  A    between atoms: _790  and  _791
REMARK  330  A    between atoms: _794  and  _796
REMARK  331  A    between atoms: _796  and  _797
REMARK  332  A    between atoms: _796  and  _799
REMARK  333  A    between atoms: _802  and  _804
REMARK  334  A    between atoms: _804  and  _805
REMARK  335  A    between atoms: _804  and  _807
REMARK  336  A    between atoms: _807  and  _808
REMARK                            x       y       z     vdW  Elec       q    Type
REMARK                         _______ _______ _______ _____ _____    ______ ____
ROOT
ATOM      1  O   HOH     1      19.589 -10.744  -2.112  0.00  0.00    +0.000 OA
ENDROOT
TORSDOF 0
REMARK  Name = ../refined-set-2016/1i5r/1i5r_pocket.pdb
REMARK  336 active torsions:
REMARK  status: ('A' for Active; 'I' for Inactive)
REMARK    1  A    between atoms: _1  and  _3
REMARK    2  A    between atoms: _3  and  _4
REMARK    3  A    between atoms: _3  and  _6
REMARK    4  A    between atoms: _6  and  _7
REMARK    5  A    between atoms: _10  and  _12
REMARK    6  A    between atoms: _12  and  _13
REMARK    7  A    between atoms: _12  and  _15
REMARK    8  A    between atoms: _15  and  _16
REMARK    9  A    between atoms: _19  and  _21
REMARK   10  A    between atoms: _21  and  _22
REMARK   11  A    between atoms: _24  and  _26
REMARK   12  A    between atoms: _26  and  _27
REMARK   13  A    between atoms: _26  and  _29
REMARK   14  A    between atoms: _31  and  _33
REMARK   15  A    between atoms: _33  and  _34
REMARK   16  A    between atoms: _33  and  _36
REMARK   17  A    between atoms: _36  and  _37
REMARK   18  A    between atoms: _39  and  _41
REMARK   19  A    between atoms: _41  and  _42
REMARK   20  A    between atoms: _41  and  _44
REMARK   21  A    between atoms: _44  and  _45
REMARK   22  A    between atoms: _47  and  _49
REMARK   23  A    between atoms: _49  and  _50
REMARK   24  A    between atoms: _52  and  _54
REMARK   25  A    between atoms: _54  and  _55
REMARK   26  A    between atoms: _54  and  _57
REMARK   27  A    between atoms: _57  and  _58
REMARK   28  A    between atoms: _61  and  _63
REMARK   29  A    between atoms: _63  and  _64
REMARK   30  A    between atoms: _66  and  _68
REMARK   31  A    between atoms: _68  and  _69
REMARK   32  A    between atoms: _68  and  _71
REMARK   33  A    between atoms: _71  and  _72
REMARK   34  A    between atoms: _75  and  _77
REMARK   35  A    between atoms: _77  and  _78
REMARK   36  A    between atoms: _77  and  _80
REMARK   37  A    between atoms: _80  and  _81
REMARK   38  A    between atoms: _86  and  _88
REMARK   39  A    between atoms: _88  and  _89
REMARK   40  A    between atoms: _88  and  _91
REMARK   41  A    between atoms: _91  and  _92
REMARK   42  A    between atoms: _95  and  _97
REMARK   43  A    between atoms: _97  and  _98
REMARK   44  A    between atoms: _97  and  _100
REMARK   45  A    between atoms: _100  and  _101
REMARK   46  A    between atoms: _104  and  _106
REMARK   47  A    between atoms: _106  and  _107
REMARK   48  A    between atoms: _106  and  _109
REMARK   49  A    between atoms: _109  and  _110
REMARK   50  A    between atoms: _110  and  _111
REMARK   51  A    between atoms: _111  and  _112
REMARK   52  A    between atoms: _121  and  _123
REMARK   53  A    between atoms: _123  and  _124
REMARK   54  A    between atoms: _123  and  _126
REMARK   55  A    between atoms: _126  and  _127
REMARK   56  A    between atoms: _130  and  _132
REMARK   57  A    between atoms: _132  and  _133
REMARK   58  A    between atoms: _132  and  _135
REMARK   59  A    between atoms: _135  and  _136
REMARK   60  A    between atoms: _139  and  _141
REMARK   61  A    between atoms: _141  and  _142
REMARK   62  A    between atoms: _141  and  _144
REMARK   63  A    between atoms: _144  and  _145
REMARK   64  A    between atoms: _145  and  _146
REMARK   65  A    between atoms: _146  and  _147
REMARK   66  A    between atoms: _156  and  _158
REMARK   67  A    between atoms: _158  and  _159
REMARK   68  A    between atoms: _158  and  _161
REMARK   69  A    between atoms: _161  and  _162
REMARK   70  A    between atoms: _165  and  _167
REMARK   71  A    between atoms: _167  and  _168
REMARK   72  A    between atoms: _167  and  _170
REMARK   73  A    between atoms: _170  and  _171
REMARK   74  A    between atoms: _171  and  _172
REMARK   75  A    between atoms: _177  and  _179
REMARK   76  A    between atoms: _179  and  _180
REMARK   77  A    between atoms: _179  and  _182
REMARK   78  A    between atoms: _182  and  _183
REMARK   79  A    between atoms: _186  and  _188
REMARK   80  A    between atoms: _188  and  _189
REMARK   81  A    between atoms: _188  and  _191
REMARK   82  A    between atoms: _191  and  _192
REMARK   83  A    between atoms: _195  and  _197
REMARK   84  A    between atoms: _197  and  _198
REMARK   85  A    between atoms: _197  and  _200
REMARK   86  A    between atoms: _203  and  _205
REMARK   87  A    between atoms: _205  and  _206
REMARK   88  A    between atoms: _205  and  _208
REMARK   89  A    between atoms: _208  and  _209
REMARK   90  A    between atoms: _209  and  _210
REMARK   91  A    between atoms: _210  and  _211
REMARK   92  A    between atoms: _220  and  _222
REMARK   93  A    between atoms: _222  and  _223
REMARK   94  A    between atoms: _222  and  _225
REMARK   95  A    between atoms: _225  and  _226
REMARK   96  A    between atoms: _229  and  _231
REMARK   97  A    between atoms: _231  and  _232
REMARK   98  A    between atoms: _231  and  _234
REMARK   99  A    between atoms: _234  and  _235
REMARK  100  A    between atoms: _237  and  _239
REMARK  101  A    between atoms: _239  and  _240
REMARK  102  A    between atoms: _239  and  _242
REMARK  103  A    between atoms: _245  and  _247
REMARK  104  A    between atoms: _247  and  _248
REMARK  105  A    between atoms: _247  and  _250
REMARK  106  A    between atoms: _252  and  _254
REMARK  107  A    between atoms: _254  and  _255
REMARK  108  A    between atoms: _254  and  _257
REMARK  109  A    between atoms: _257  and  _258
REMARK  110  A    between atoms: _263  and  _265
REMARK  111  A    between atoms: _265  and  _266
REMARK  112  A    between atoms: _269  and  _271
REMARK  113  A    between atoms: _271  and  _272
REMARK  114  A    between atoms: _274  and  _276
REMARK  115  A    between atoms: _276  and  _277
REMARK  116  A    between atoms: _276  and  _279
REMARK  117  A    between atoms: _279  and  _280
REMARK  118  A    between atoms: _283  and  _285
REMARK  119  A    between atoms: _285  and  _286
REMARK  120  A    between atoms: _288  and  _290
REMARK  121  A    between atoms: _290  and  _291
REMARK  122  A    between atoms: _290  and  _293
REMARK  123  A    between atoms: _293  and  _294
REMARK  124  A    between atoms: _297  and  _299
REMARK  125  A    between atoms: _299  and  _300
REMARK  126  A    between atoms: _299  and  _302
REMARK  127  A    between atoms: _302  and  _303
REMARK  128  A    between atoms: _306  and  _308
REMARK  129  A    between atoms: _308  and  _309
REMARK  130  A    between atoms: _308  and  _311
REMARK  131  A    between atoms: _311  and  _312
REMARK  132  A    between atoms: _314  and  _316
REMARK  133  A    between atoms: _316  and  _317
REMARK  134  A    between atoms: _316  and  _319
REMARK  135  A    between atoms: _319  and  _320
REMARK  136  A    between atoms: _323  and  _325
REMARK  137  A    between atoms: _325  and  _326
REMARK  138  A    between atoms: _325  and  _328
REMARK  139  A    between atoms: _331  and  _333
REMARK  140  A    between atoms: _333  and  _334
REMARK  141  A    between atoms: _333  and  _336
REMARK  142  A    between atoms: _336  and  _337
REMARK  143  A    between atoms: _342  and  _344
REMARK  144  A    between atoms: _344  and  _345
REMARK  145  A    between atoms: _347  and  _349
REMARK  146  A    between atoms: _349  and  _350
REMARK  147  A    between atoms: _349  and  _352
REMARK  148  A    between atoms: _352  and  _353
REMARK  149  A    between atoms: _353  and  _354
REMARK  150  A    between atoms: _354  and  _355
REMARK  151  A    between atoms: _364  and  _366
REMARK  152  A    between atoms: _366  and  _367
REMARK  153  A    between atoms: _366  and  _369
REMARK  154  A    between atoms: _369  and  _370
REMARK  155  A    between atoms: _370  and  _371
REMARK  156  A    between atoms: _373  and  _375
REMARK  157  A    between atoms: _375  and  _376
REMARK  158  A    between atoms: _375  and  _378
REMARK  159  A    between atoms: _378  and  _379
REMARK  160  A    between atoms: _382  and  _384
REMARK  161  A    between atoms: _384  and  _385
REMARK  162  A    between atoms: _387  and  _389
REMARK  163  A    between atoms: _389  and  _390
REMARK  164  A    between atoms: _389  and  _392
REMARK  165  A    between atoms: _392  and  _393
REMARK  166  A    between atoms: _395  and  _397
REMARK  167  A    between atoms: _397  and  _398
REMARK  168  A    between atoms: _397  and  _400
REMARK  169  A    between atoms: _403  and  _405
REMARK  170  A    between atoms: _405  and  _406
REMARK  171  A    between atoms: _408  and  _410
REMARK  172  A    between atoms: _410  and  _411
REMARK  173  A    between atoms: _413  and  _415
REMARK  174  A    between atoms: _415  and  _416
REMARK  175  A    between atoms: _415  and  _418
REMARK  176  A    between atoms: _418  and  _419
REMARK  177  A    between atoms: _422  and  _424
REMARK  178  A    between atoms: _424  and  _425
REMARK  179  A    between atoms: _424  and  _427
REMARK  180  A    between atoms: _427  and  _428
REMARK  181  A    between atoms: _428  and  _429
REMARK  182  A    between atoms: _431  and  _433
REMARK  183  A    between atoms: _433  and  _434
REMARK  184  A    between atoms: _436  and  _438
REMARK  185  A    between atoms: _438  and  _439
REMARK  186  A    between atoms: _438  and  _441
REMARK  187  A    between atoms: _441  and  _442
REMARK  188  A    between atoms: _446  and  _447
REMARK  189  A    between atoms: _452  and  _454
REMARK  190  A    between atoms: _454  and  _455
REMARK  191  A    between atoms: _454  and  _457
REMARK  192  A    between atoms: _457  and  _458
REMARK  193  A    between atoms: _463  and  _465
REMARK  194  A    between atoms: _465  and  _466
REMARK  195  A    between atoms: _465  and  _468
REMARK  196  A    between atoms: _468  and  _469
REMARK  197  A    between atoms: _474  and  _475
REMARK  198  A    between atoms: _477  and  _479
REMARK  199  A    between atoms: _479  and  _480
REMARK  200  A    between atoms: _479  and  _482
REMARK  201  A    between atoms: _484  and  _486
REMARK  202  A    between atoms: _486  and  _487
REMARK  203  A    between atoms: _486  and  _489
REMARK  204  A    between atoms: _489  and  _490
REMARK  205  A    between atoms: _490  and  _491
REMARK  206  A    between atoms: _491  and  _492
REMARK  207  A    between atoms: _492  and  _493
REMARK  208  A    between atoms: _497  and  _499
REMARK  209  A    between atoms: _499  and  _500
REMARK  210  A    between atoms: _499  and  _502
REMARK  211  A    between atoms: _502  and  _503
REMARK  212  A    between atoms: _503  and  _504
REMARK  213  A    between atoms: _507  and  _509
REMARK  214  A    between atoms: _509  and  _510
REMARK  215  A    between atoms: _509  and  _512
REMARK  216  A    between atoms: _514  and  _516
REMARK  217  A    between atoms: _516  and  _517
REMARK  218  A    between atoms: _520  and  _521
REMARK  219  A    between atoms: _526  and  _528
REMARK  220  A    between atoms: _528  and  _529
REMARK  221  A    between atoms: _528  and  _531
REMARK  222  A    between atoms: _534  and  _536
REMARK  223  A    between atoms: _536  and  _537
REMARK  224  A    between atoms: _536  and  _539
REMARK  225  A    between atoms: _539  and  _540
REMARK  226  A    between atoms: _543  and  _545
REMARK  227  A    between atoms: _545  and  _546
REMARK  228  A    between atoms: _545  and  _548
REMARK  229  A    between atoms: _548  and  _549
REMARK  230  A    between atoms: _555  and  _557
REMARK  231  A    between atoms: _557  and  _558
REMARK  232  A    between atoms: _557  and  _560
REMARK  233  A    between atoms: _560  and  _561
REMARK  234  A    between atoms: _561  and  _562
REMARK  235  A    between atoms: _564  and  _566
REMARK  236  A    between atoms: _566  and  _567
REMARK  237  A    between atoms: _566  and  _569
REMARK  238  A    between atoms: _569  and  _570
REMARK  239  A    between atoms: _570  and  _571
REMARK  240  A    between atoms: _574  and  _576
REMARK  241  A    between atoms: _576  and  _577
REMARK  242  A    between atoms: _576  and  _579
REMARK  243  A    between atoms: _579  and  _580
REMARK  244  A    between atoms: _580  and  _581
REMARK  245  A    between atoms: _581  and  _582
REMARK  246  A    between atoms: _582  and  _583
REMARK  247  A    between atoms: _587  and  _589
REMARK  248  A    between atoms: _589  and  _590
REMARK  249  A    between atoms: _589  and  _592
REMARK  250  A    between atoms: _592  and  _593
REMARK  251  A    between atoms: _598  and  _599
REMARK  252  A    between atoms: _601  and  _603
REMARK  253  A    between atoms: _603  and  _604
REMARK  254  A    between atoms: _603  and  _606
REMARK  255  A    between atoms: _606  and  _607
REMARK  256  A    between atoms: _610  and  _612
REMARK  257  A    between atoms: _612  and  _613
REMARK  258  A    between atoms: _612  and  _615
REMARK  259  A    between atoms: _615  and  _616
REMARK  260  A    between atoms: _621  and  _623
REMARK  261  A    between atoms: _623  and  _624
REMARK  262  A    between atoms: _623  and  _626
REMARK  263  A    between atoms: _626  and  _627
REMARK  264  A    between atoms: _629  and  _631
REMARK  265  A    between atoms: _631  and  _632
REMARK  266  A    between atoms: _631  and  _634
REMARK  267  A    between atoms: _634  and  _635
REMARK  268  A    between atoms: _635  and  _636
REMARK  269  A    between atoms: _636  and  _637
REMARK  270  A    between atoms: _637  and  _638
REMARK  271  A    between atoms: _642  and  _644
REMARK  272  A    between atoms: _644  and  _645
REMARK  273  A    between atoms: _644  and  _647
REMARK  274  A    between atoms: _647  and  _648
REMARK  275  A    between atoms: _648  and  _649
REMARK  276  A    between atoms: _654  and  _656
REMARK  277  A    between atoms: _656  and  _657
REMARK  278  A    between atoms: _656  and  _659
REMARK  279  A    between atoms: _662  and  _664
REMARK  280  A    between atoms: _664  and  _665
REMARK  281  A    between atoms: _664  and  _667
REMARK  282  A    between atoms: _667  and  _668
REMARK  283  A    between atoms: _674  and  _676
REMARK  284  A    between atoms: _676  and  _677
REMARK  285  A    between atoms: _680  and  _682
REMARK  286  A    between atoms: _682  and  _683
REMARK  287  A    between atoms: _682  and  _685
REMARK  288  A    between atoms: _685  and  _686
REMARK  289  A    between atoms: _689  and  _691
REMARK  290  A    between atoms: _691  and  _692
REMARK  291  A    between atoms: _691  and  _694
REMARK  292  A    between atoms: _694  and  _695
REMARK  293  A    between atoms: _695  and  _696
REMARK  294  A    between atoms: _696  and  _697
REMARK  295  A    between atoms: _706  and  _708
REMARK  296  A    between atoms: _708  and  _709
REMARK  297  A    between atoms: _708  and  _711
REMARK  298  A    between atoms: _711  and  _712
REMARK  299  A    between atoms: _718  and  _720
REMARK  300  A    between atoms: _720  and  _721
REMARK  301  A    between atoms: _720  and  _723
REMARK  302  A    between atoms: _723  and  _724
REMARK  303  A    between atoms: _727  and  _729
REMARK  304  A    between atoms: _729  and  _730
REMARK  305  A    between atoms: _729  and  _732
REMARK  306  A    between atoms: _732  and  _733
REMARK  307  A    between atoms: _738  and  _739
REMARK  308  A    between atoms: _741  and  _743
REMARK  309  A    between atoms: _743  and  _744
REMARK  310  A    between atoms: _747  and  _749
REMARK  311  A    between atoms: _749  and  _750
REMARK  312  A    between atoms: _749  and  _752
REMARK  313  A    between atoms: _752  and  _753
REMARK  314  A    between atoms: _753  and  _754
REMARK  315  A    between atoms: _756  and  _758
REMARK  316  A    between atoms: _758  and  _759
REMARK  317  A    between atoms: _758  and  _761
REMARK  318  A    between atoms: _761  and  _762
REMARK  319  A    between atoms: _767  and  _769
REMARK  320  A    between atoms: _769  and  _770
REMARK  321  A    between atoms: _769  and  _772
REMARK  322  A    between atoms: _772  and  _773
REMARK  323  A    between atoms: _773  and  _774
REMARK  324  A    between atoms: _774  and  _775
REMARK  325  A    between atoms: _784  and  _786
REMARK  326  A    between atoms: _786  and  _787
REMARK  327  A    between atoms: _786  and  _789
REMARK  328  A    between atoms: _789  and  _790
REMARK  329  A    between atoms: _790  and  _791
REMARK  330  A    between atoms: _794  and  _796
REMARK  331  A    between atoms: _796  and  _797
REMARK  332  A    between atoms: _796  and  _799
REMARK  333  A    between atoms: _802  and  _804
REMARK  334  A    between atoms: _804  and  _805
REMARK  335  A    between atoms: _804  and  _807
REMARK  336  A    between atoms: _807  and  _808
REMARK                            x       y       z     vdW  Elec       q    Type
REMARK                         _______ _______ _______ _____ _____    ______ ____
ROOT
ATOM      1  O   HOH     1      11.856 -10.604  -2.971  0.00  0.00    +0.000 OA
ENDROOT
TORSDOF 0
REMARK  Name = ../refined-set-2016/1i5r/1i5r_pocket.pdb
REMARK  336 active torsions:
REMARK  status: ('A' for Active; 'I' for Inactive)
REMARK    1  A    between atoms: _1  and  _3
REMARK    2  A    between atoms: _3  and  _4
REMARK    3  A    between atoms: _3  and  _6
REMARK    4  A    between atoms: _6  and  _7
REMARK    5  A    between atoms: _10  and  _12
REMARK    6  A    between atoms: _12  and  _13
REMARK    7  A    between atoms: _12  and  _15
REMARK    8  A    between atoms: _15  and  _16
REMARK    9  A    between atoms: _19  and  _21
REMARK   10  A    between atoms: _21  and  _22
REMARK   11  A    between atoms: _24  and  _26
REMARK   12  A    between atoms: _26  and  _27
REMARK   13  A    between atoms: _26  and  _29
REMARK   14  A    between atoms: _31  and  _33
REMARK   15  A    between atoms: _33  and  _34
REMARK   16  A    between atoms: _33  and  _36
REMARK   17  A    between atoms: _36  and  _37
REMARK   18  A    between atoms: _39  and  _41
REMARK   19  A    between atoms: _41  and  _42
REMARK   20  A    between atoms: _41  and  _44
REMARK   21  A    between atoms: _44  and  _45
REMARK   22  A    between atoms: _47  and  _49
REMARK   23  A    between atoms: _49  and  _50
REMARK   24  A    between atoms: _52  and  _54
REMARK   25  A    between atoms: _54  and  _55
REMARK   26  A    between atoms: _54  and  _57
REMARK   27  A    between atoms: _57  and  _58
REMARK   28  A    between atoms: _61  and  _63
REMARK   29  A    between atoms: _63  and  _64
REMARK   30  A    between atoms: _66  and  _68
REMARK   31  A    between atoms: _68  and  _69
REMARK   32  A    between atoms: _68  and  _71
REMARK   33  A    between atoms: _71  and  _72
REMARK   34  A    between atoms: _75  and  _77
REMARK   35  A    between atoms: _77  and  _78
REMARK   36  A    between atoms: _77  and  _80
REMARK   37  A    between atoms: _80  and  _81
REMARK   38  A    between atoms: _86  and  _88
REMARK   39  A    between atoms: _88  and  _89
REMARK   40  A    between atoms: _88  and  _91
REMARK   41  A    between atoms: _91  and  _92
REMARK   42  A    between atoms: _95  and  _97
REMARK   43  A    between atoms: _97  and  _98
REMARK   44  A    between atoms: _97  and  _100
REMARK   45  A    between atoms: _100  and  _101
REMARK   46  A    between atoms: _104  and  _106
REMARK   47  A    between atoms: _106  and  _107
REMARK   48  A    between atoms: _106  and  _109
REMARK   49  A    between atoms: _109  and  _110
REMARK   50  A    between atoms: _110  and  _111
REMARK   51  A    between atoms: _111  and  _112
REMARK   52  A    between atoms: _121  and  _123
REMARK   53  A    between atoms: _123  and  _124
REMARK   54  A    between atoms: _123  and  _126
REMARK   55  A    between atoms: _126  and  _127
REMARK   56  A    between atoms: _130  and  _132
REMARK   57  A    between atoms: _132  and  _133
REMARK   58  A    between atoms: _132  and  _135
REMARK   59  A    between atoms: _135  and  _136
REMARK   60  A    between atoms: _139  and  _141
REMARK   61  A    between atoms: _141  and  _142
REMARK   62  A    between atoms: _141  and  _144
REMARK   63  A    between atoms: _144  and  _145
REMARK   64  A    between atoms: _145  and  _146
REMARK   65  A    between atoms: _146  and  _147
REMARK   66  A    between atoms: _156  and  _158
REMARK   67  A    between atoms: _158  and  _159
REMARK   68  A    between atoms: _158  and  _161
REMARK   69  A    between atoms: _161  and  _162
REMARK   70  A    between atoms: _165  and  _167
REMARK   71  A    between atoms: _167  and  _168
REMARK   72  A    between atoms: _167  and  _170
REMARK   73  A    between atoms: _170  and  _171
REMARK   74  A    between atoms: _171  and  _172
REMARK   75  A    between atoms: _177  and  _179
REMARK   76  A    between atoms: _179  and  _180
REMARK   77  A    between atoms: _179  and  _182
REMARK   78  A    between atoms: _182  and  _183
REMARK   79  A    between atoms: _186  and  _188
REMARK   80  A    between atoms: _188  and  _189
REMARK   81  A    between atoms: _188  and  _191
REMARK   82  A    between atoms: _191  and  _192
REMARK   83  A    between atoms: _195  and  _197
REMARK   84  A    between atoms: _197  and  _198
REMARK   85  A    between atoms: _197  and  _200
REMARK   86  A    between atoms: _203  and  _205
REMARK   87  A    between atoms: _205  and  _206
REMARK   88  A    between atoms: _205  and  _208
REMARK   89  A    between atoms: _208  and  _209
REMARK   90  A    between atoms: _209  and  _210
REMARK   91  A    between atoms: _210  and  _211
REMARK   92  A    between atoms: _220  and  _222
REMARK   93  A    between atoms: _222  and  _223
REMARK   94  A    between atoms: _222  and  _225
REMARK   95  A    between atoms: _225  and  _226
REMARK   96  A    between atoms: _229  and  _231
REMARK   97  A    between atoms: _231  and  _232
REMARK   98  A    between atoms: _231  and  _234
REMARK   99  A    between atoms: _234  and  _235
REMARK  100  A    between atoms: _237  and  _239
REMARK  101  A    between atoms: _239  and  _240
REMARK  102  A    between atoms: _239  and  _242
REMARK  103  A    between atoms: _245  and  _247
REMARK  104  A    between atoms: _247  and  _248
REMARK  105  A    between atoms: _247  and  _250
REMARK  106  A    between atoms: _252  and  _254
REMARK  107  A    between atoms: _254  and  _255
REMARK  108  A    between atoms: _254  and  _257
REMARK  109  A    between atoms: _257  and  _258
REMARK  110  A    between atoms: _263  and  _265
REMARK  111  A    between atoms: _265  and  _266
REMARK  112  A    between atoms: _269  and  _271
REMARK  113  A    between atoms: _271  and  _272
REMARK  114  A    between atoms: _274  and  _276
REMARK  115  A    between atoms: _276  and  _277
REMARK  116  A    between atoms: _276  and  _279
REMARK  117  A    between atoms: _279  and  _280
REMARK  118  A    between atoms: _283  and  _285
REMARK  119  A    between atoms: _285  and  _286
REMARK  120  A    between atoms: _288  and  _290
REMARK  121  A    between atoms: _290  and  _291
REMARK  122  A    between atoms: _290  and  _293
REMARK  123  A    between atoms: _293  and  _294
REMARK  124  A    between atoms: _297  and  _299
REMARK  125  A    between atoms: _299  and  _300
REMARK  126  A    between atoms: _299  and  _302
REMARK  127  A    between atoms: _302  and  _303
REMARK  128  A    between atoms: _306  and  _308
REMARK  129  A    between atoms: _308  and  _309
REMARK  130  A    between atoms: _308  and  _311
REMARK  131  A    between atoms: _311  and  _312
REMARK  132  A    between atoms: _314  and  _316
REMARK  133  A    between atoms: _316  and  _317
REMARK  134  A    between atoms: _316  and  _319
REMARK  135  A    between atoms: _319  and  _320
REMARK  136  A    between atoms: _323  and  _325
REMARK  137  A    between atoms: _325  and  _326
REMARK  138  A    between atoms: _325  and  _328
REMARK  139  A    between atoms: _331  and  _333
REMARK  140  A    between atoms: _333  and  _334
REMARK  141  A    between atoms: _333  and  _336
REMARK  142  A    between atoms: _336  and  _337
REMARK  143  A    between atoms: _342  and  _344
REMARK  144  A    between atoms: _344  and  _345
REMARK  145  A    between atoms: _347  and  _349
REMARK  146  A    between atoms: _349  and  _350
REMARK  147  A    between atoms: _349  and  _352
REMARK  148  A    between atoms: _352  and  _353
REMARK  149  A    between atoms: _353  and  _354
REMARK  150  A    between atoms: _354  and  _355
REMARK  151  A    between atoms: _364  and  _366
REMARK  152  A    between atoms: _366  and  _367
REMARK  153  A    between atoms: _366  and  _369
REMARK  154  A    between atoms: _369  and  _370
REMARK  155  A    between atoms: _370  and  _371
REMARK  156  A    between atoms: _373  and  _375
REMARK  157  A    between atoms: _375  and  _376
REMARK  158  A    between atoms: _375  and  _378
REMARK  159  A    between atoms: _378  and  _379
REMARK  160  A    between atoms: _382  and  _384
REMARK  161  A    between atoms: _384  and  _385
REMARK  162  A    between atoms: _387  and  _389
REMARK  163  A    between atoms: _389  and  _390
REMARK  164  A    between atoms: _389  and  _392
REMARK  165  A    between atoms: _392  and  _393
REMARK  166  A    between atoms: _395  and  _397
REMARK  167  A    between atoms: _397  and  _398
REMARK  168  A    between atoms: _397  and  _400
REMARK  169  A    between atoms: _403  and  _405
REMARK  170  A    between atoms: _405  and  _406
REMARK  171  A    between atoms: _408  and  _410
REMARK  172  A    between atoms: _410  and  _411
REMARK  173  A    between atoms: _413  and  _415
REMARK  174  A    between atoms: _415  and  _416
REMARK  175  A    between atoms: _415  and  _418
REMARK  176  A    between atoms: _418  and  _419
REMARK  177  A    between atoms: _422  and  _424
REMARK  178  A    between atoms: _424  and  _425
REMARK  179  A    between atoms: _424  and  _427
REMARK  180  A    between atoms: _427  and  _428
REMARK  181  A    between atoms: _428  and  _429
REMARK  182  A    between atoms: _431  and  _433
REMARK  183  A    between atoms: _433  and  _434
REMARK  184  A    between atoms: _436  and  _438
REMARK  185  A    between atoms: _438  and  _439
REMARK  186  A    between atoms: _438  and  _441
REMARK  187  A    between atoms: _441  and  _442
REMARK  188  A    between atoms: _446  and  _447
REMARK  189  A    between atoms: _452  and  _454
REMARK  190  A    between atoms: _454  and  _455
REMARK  191  A    between atoms: _454  and  _457
REMARK  192  A    between atoms: _457  and  _458
REMARK  193  A    between atoms: _463  and  _465
REMARK  194  A    between atoms: _465  and  _466
REMARK  195  A    between atoms: _465  and  _468
REMARK  196  A    between atoms: _468  and  _469
REMARK  197  A    between atoms: _474  and  _475
REMARK  198  A    between atoms: _477  and  _479
REMARK  199  A    between atoms: _479  and  _480
REMARK  200  A    between atoms: _479  and  _482
REMARK  201  A    between atoms: _484  and  _486
REMARK  202  A    between atoms: _486  and  _487
REMARK  203  A    between atoms: _486  and  _489
REMARK  204  A    between atoms: _489  and  _490
REMARK  205  A    between atoms: _490  and  _491
REMARK  206  A    between atoms: _491  and  _492
REMARK  207  A    between atoms: _492  and  _493
REMARK  208  A    between atoms: _497  and  _499
REMARK  209  A    between atoms: _499  and  _500
REMARK  210  A    between atoms: _499  and  _502
REMARK  211  A    between atoms: _502  and  _503
REMARK  212  A    between atoms: _503  and  _504
REMARK  213  A    between atoms: _507  and  _509
REMARK  214  A    between atoms: _509  and  _510
REMARK  215  A    between atoms: _509  and  _512
REMARK  216  A    between atoms: _514  and  _516
REMARK  217  A    between atoms: _516  and  _517
REMARK  218  A    between atoms: _520  and  _521
REMARK  219  A    between atoms: _526  and  _528
REMARK  220  A    between atoms: _528  and  _529
REMARK  221  A    between atoms: _528  and  _531
REMARK  222  A    between atoms: _534  and  _536
REMARK  223  A    between atoms: _536  and  _537
REMARK  224  A    between atoms: _536  and  _539
REMARK  225  A    between atoms: _539  and  _540
REMARK  226  A    between atoms: _543  and  _545
REMARK  227  A    between atoms: _545  and  _546
REMARK  228  A    between atoms: _545  and  _548
REMARK  229  A    between atoms: _548  and  _549
REMARK  230  A    between atoms: _555  and  _557
REMARK  231  A    between atoms: _557  and  _558
REMARK  232  A    between atoms: _557  and  _560
REMARK  233  A    between atoms: _560  and  _561
REMARK  234  A    between atoms: _561  and  _562
REMARK  235  A    between atoms: _564  and  _566
REMARK  236  A    between atoms: _566  and  _567
REMARK  237  A    between atoms: _566  and  _569
REMARK  238  A    between atoms: _569  and  _570
REMARK  239  A    between atoms: _570  and  _571
REMARK  240  A    between atoms: _574  and  _576
REMARK  241  A    between atoms: _576  and  _577
REMARK  242  A    between atoms: _576  and  _579
REMARK  243  A    between atoms: _579  and  _580
REMARK  244  A    between atoms: _580  and  _581
REMARK  245  A    between atoms: _581  and  _582
REMARK  246  A    between atoms: _582  and  _583
REMARK  247  A    between atoms: _587  and  _589
REMARK  248  A    between atoms: _589  and  _590
REMARK  249  A    between atoms: _589  and  _592
REMARK  250  A    between atoms: _592  and  _593
REMARK  251  A    between atoms: _598  and  _599
REMARK  252  A    between atoms: _601  and  _603
REMARK  253  A    between atoms: _603  and  _604
REMARK  254  A    between atoms: _603  and  _606
REMARK  255  A    between atoms: _606  and  _607
REMARK  256  A    between atoms: _610  and  _612
REMARK  257  A    between atoms: _612  and  _613
REMARK  258  A    between atoms: _612  and  _615
REMARK  259  A    between atoms: _615  and  _616
REMARK  260  A    between atoms: _621  and  _623
REMARK  261  A    between atoms: _623  and  _624
REMARK  262  A    between atoms: _623  and  _626
REMARK  263  A    between atoms: _626  and  _627
REMARK  264  A    between atoms: _629  and  _631
REMARK  265  A    between atoms: _631  and  _632
REMARK  266  A    between atoms: _631  and  _634
REMARK  267  A    between atoms: _634  and  _635
REMARK  268  A    between atoms: _635  and  _636
REMARK  269  A    between atoms: _636  and  _637
REMARK  270  A    between atoms: _637  and  _638
REMARK  271  A    between atoms: _642  and  _644
REMARK  272  A    between atoms: _644  and  _645
REMARK  273  A    between atoms: _644  and  _647
REMARK  274  A    between atoms: _647  and  _648
REMARK  275  A    between atoms: _648  and  _649
REMARK  276  A    between atoms: _654  and  _656
REMARK  277  A    between atoms: _656  and  _657
REMARK  278  A    between atoms: _656  and  _659
REMARK  279  A    between atoms: _662  and  _664
REMARK  280  A    between atoms: _664  and  _665
REMARK  281  A    between atoms: _664  and  _667
REMARK  282  A    between atoms: _667  and  _668
REMARK  283  A    between atoms: _674  and  _676
REMARK  284  A    between atoms: _676  and  _677
REMARK  285  A    between atoms: _680  and  _682
REMARK  286  A    between atoms: _682  and  _683
REMARK  287  A    between atoms: _682  and  _685
REMARK  288  A    between atoms: _685  and  _686
REMARK  289  A    between atoms: _689  and  _691
REMARK  290  A    between atoms: _691  and  _692
REMARK  291  A    between atoms: _691  and  _694
REMARK  292  A    between atoms: _694  and  _695
REMARK  293  A    between atoms: _695  and  _696
REMARK  294  A    between atoms: _696  and  _697
REMARK  295  A    between atoms: _706  and  _708
REMARK  296  A    between atoms: _708  and  _709
REMARK  297  A    between atoms: _708  and  _711
REMARK  298  A    between atoms: _711  and  _712
REMARK  299  A    between atoms: _718  and  _720
REMARK  300  A    between atoms: _720  and  _721
REMARK  301  A    between atoms: _720  and  _723
REMARK  302  A    between atoms: _723  and  _724
REMARK  303  A    between atoms: _727  and  _729
REMARK  304  A    between atoms: _729  and  _730
REMARK  305  A    between atoms: _729  and  _732
REMARK  306  A    between atoms: _732  and  _733
REMARK  307  A    between atoms: _738  and  _739
REMARK  308  A    between atoms: _741  and  _743
REMARK  309  A    between atoms: _743  and  _744
REMARK  310  A    between atoms: _747  and  _749
REMARK  311  A    between atoms: _749  and  _750
REMARK  312  A    between atoms: _749  and  _752
REMARK  313  A    between atoms: _752  and  _753
REMARK  314  A    between atoms: _753  and  _754
REMARK  315  A    between atoms: _756  and  _758
REMARK  316  A    between atoms: _758  and  _759
REMARK  317  A    between atoms: _758  and  _761
REMARK  318  A    between atoms: _761  and  _762
REMARK  319  A    between atoms: _767  and  _769
REMARK  320  A    between atoms: _769  and  _770
REMARK  321  A    between atoms: _769  and  _772
REMARK  322  A    between atoms: _772  and  _773
REMARK  323  A    between atoms: _773  and  _774
REMARK  324  A    between atoms: _774  and  _775
REMARK  325  A    between atoms: _784  and  _786
REMARK  326  A    between atoms: _786  and  _787
REMARK  327  A    between atoms: _786  and  _789
REMARK  328  A    between atoms: _789  and  _790
REMARK  329  A    between atoms: _790  and  _791
REMARK  330  A    between atoms: _794  and  _796
REMARK  331  A    between atoms: _796  and  _797
REMARK  332  A    between atoms: _796  and  _799
REMARK  333  A    between atoms: _802  and  _804
REMARK  334  A    between atoms: _804  and  _805
REMARK  335  A    between atoms: _804  and  _807
REMARK  336  A    between atoms: _807  and  _808
REMARK                            x       y       z     vdW  Elec       q    Type
REMARK                         _______ _______ _______ _____ _____    ______ ____
ROOT
ATOM      1  O   HOH     1      12.523  -3.845   4.866  0.00  0.00    +0.000 OA
ENDROOT
TORSDOF 0
REMARK  Name = ../refined-set-2016/1i5r/1i5r_pocket.pdb
REMARK  336 active torsions:
REMARK  status: ('A' for Active; 'I' for Inactive)
REMARK    1  A    between atoms: _1  and  _3
REMARK    2  A    between atoms: _3  and  _4
REMARK    3  A    between atoms: _3  and  _6
REMARK    4  A    between atoms: _6  and  _7
REMARK    5  A    between atoms: _10  and  _12
REMARK    6  A    between atoms: _12  and  _13
REMARK    7  A    between atoms: _12  and  _15
REMARK    8  A    between atoms: _15  and  _16
REMARK    9  A    between atoms: _19  and  _21
REMARK   10  A    between atoms: _21  and  _22
REMARK   11  A    between atoms: _24  and  _26
REMARK   12  A    between atoms: _26  and  _27
REMARK   13  A    between atoms: _26  and  _29
REMARK   14  A    between atoms: _31  and  _33
REMARK   15  A    between atoms: _33  and  _34
REMARK   16  A    between atoms: _33  and  _36
REMARK   17  A    between atoms: _36  and  _37
REMARK   18  A    between atoms: _39  and  _41
REMARK   19  A    between atoms: _41  and  _42
REMARK   20  A    between atoms: _41  and  _44
REMARK   21  A    between atoms: _44  and  _45
REMARK   22  A    between atoms: _47  and  _49
REMARK   23  A    between atoms: _49  and  _50
REMARK   24  A    between atoms: _52  and  _54
REMARK   25  A    between atoms: _54  and  _55
REMARK   26  A    between atoms: _54  and  _57
REMARK   27  A    between atoms: _57  and  _58
REMARK   28  A    between atoms: _61  and  _63
REMARK   29  A    between atoms: _63  and  _64
REMARK   30  A    between atoms: _66  and  _68
REMARK   31  A    between atoms: _68  and  _69
REMARK   32  A    between atoms: _68  and  _71
REMARK   33  A    between atoms: _71  and  _72
REMARK   34  A    between atoms: _75  and  _77
REMARK   35  A    between atoms: _77  and  _78
REMARK   36  A    between atoms: _77  and  _80
REMARK   37  A    between atoms: _80  and  _81
REMARK   38  A    between atoms: _86  and  _88
REMARK   39  A    between atoms: _88  and  _89
REMARK   40  A    between atoms: _88  and  _91
REMARK   41  A    between atoms: _91  and  _92
REMARK   42  A    between atoms: _95  and  _97
REMARK   43  A    between atoms: _97  and  _98
REMARK   44  A    between atoms: _97  and  _100
REMARK   45  A    between atoms: _100  and  _101
REMARK   46  A    between atoms: _104  and  _106
REMARK   47  A    between atoms: _106  and  _107
REMARK   48  A    between atoms: _106  and  _109
REMARK   49  A    between atoms: _109  and  _110
REMARK   50  A    between atoms: _110  and  _111
REMARK   51  A    between atoms: _111  and  _112
REMARK   52  A    between atoms: _121  and  _123
REMARK   53  A    between atoms: _123  and  _124
REMARK   54  A    between atoms: _123  and  _126
REMARK   55  A    between atoms: _126  and  _127
REMARK   56  A    between atoms: _130  and  _132
REMARK   57  A    between atoms: _132  and  _133
REMARK   58  A    between atoms: _132  and  _135
REMARK   59  A    between atoms: _135  and  _136
REMARK   60  A    between atoms: _139  and  _141
REMARK   61  A    between atoms: _141  and  _142
REMARK   62  A    between atoms: _141  and  _144
REMARK   63  A    between atoms: _144  and  _145
REMARK   64  A    between atoms: _145  and  _146
REMARK   65  A    between atoms: _146  and  _147
REMARK   66  A    between atoms: _156  and  _158
REMARK   67  A    between atoms: _158  and  _159
REMARK   68  A    between atoms: _158  and  _161
REMARK   69  A    between atoms: _161  and  _162
REMARK   70  A    between atoms: _165  and  _167
REMARK   71  A    between atoms: _167  and  _168
REMARK   72  A    between atoms: _167  and  _170
REMARK   73  A    between atoms: _170  and  _171
REMARK   74  A    between atoms: _171  and  _172
REMARK   75  A    between atoms: _177  and  _179
REMARK   76  A    between atoms: _179  and  _180
REMARK   77  A    between atoms: _179  and  _182
REMARK   78  A    between atoms: _182  and  _183
REMARK   79  A    between atoms: _186  and  _188
REMARK   80  A    between atoms: _188  and  _189
REMARK   81  A    between atoms: _188  and  _191
REMARK   82  A    between atoms: _191  and  _192
REMARK   83  A    between atoms: _195  and  _197
REMARK   84  A    between atoms: _197  and  _198
REMARK   85  A    between atoms: _197  and  _200
REMARK   86  A    between atoms: _203  and  _205
REMARK   87  A    between atoms: _205  and  _206
REMARK   88  A    between atoms: _205  and  _208
REMARK   89  A    between atoms: _208  and  _209
REMARK   90  A    between atoms: _209  and  _210
REMARK   91  A    between atoms: _210  and  _211
REMARK   92  A    between atoms: _220  and  _222
REMARK   93  A    between atoms: _222  and  _223
REMARK   94  A    between atoms: _222  and  _225
REMARK   95  A    between atoms: _225  and  _226
REMARK   96  A    between atoms: _229  and  _231
REMARK   97  A    between atoms: _231  and  _232
REMARK   98  A    between atoms: _231  and  _234
REMARK   99  A    between atoms: _234  and  _235
REMARK  100  A    between atoms: _237  and  _239
REMARK  101  A    between atoms: _239  and  _240
REMARK  102  A    between atoms: _239  and  _242
REMARK  103  A    between atoms: _245  and  _247
REMARK  104  A    between atoms: _247  and  _248
REMARK  105  A    between atoms: _247  and  _250
REMARK  106  A    between atoms: _252  and  _254
REMARK  107  A    between atoms: _254  and  _255
REMARK  108  A    between atoms: _254  and  _257
REMARK  109  A    between atoms: _257  and  _258
REMARK  110  A    between atoms: _263  and  _265
REMARK  111  A    between atoms: _265  and  _266
REMARK  112  A    between atoms: _269  and  _271
REMARK  113  A    between atoms: _271  and  _272
REMARK  114  A    between atoms: _274  and  _276
REMARK  115  A    between atoms: _276  and  _277
REMARK  116  A    between atoms: _276  and  _279
REMARK  117  A    between atoms: _279  and  _280
REMARK  118  A    between atoms: _283  and  _285
REMARK  119  A    between atoms: _285  and  _286
REMARK  120  A    between atoms: _288  and  _290
REMARK  121  A    between atoms: _290  and  _291
REMARK  122  A    between atoms: _290  and  _293
REMARK  123  A    between atoms: _293  and  _294
REMARK  124  A    between atoms: _297  and  _299
REMARK  125  A    between atoms: _299  and  _300
REMARK  126  A    between atoms: _299  and  _302
REMARK  127  A    between atoms: _302  and  _303
REMARK  128  A    between atoms: _306  and  _308
REMARK  129  A    between atoms: _308  and  _309
REMARK  130  A    between atoms: _308  and  _311
REMARK  131  A    between atoms: _311  and  _312
REMARK  132  A    between atoms: _314  and  _316
REMARK  133  A    between atoms: _316  and  _317
REMARK  134  A    between atoms: _316  and  _319
REMARK  135  A    between atoms: _319  and  _320
REMARK  136  A    between atoms: _323  and  _325
REMARK  137  A    between atoms: _325  and  _326
REMARK  138  A    between atoms: _325  and  _328
REMARK  139  A    between atoms: _331  and  _333
REMARK  140  A    between atoms: _333  and  _334
REMARK  141  A    between atoms: _333  and  _336
REMARK  142  A    between atoms: _336  and  _337
REMARK  143  A    between atoms: _342  and  _344
REMARK  144  A    between atoms: _344  and  _345
REMARK  145  A    between atoms: _347  and  _349
REMARK  146  A    between atoms: _349  and  _350
REMARK  147  A    between atoms: _349  and  _352
REMARK  148  A    between atoms: _352  and  _353
REMARK  149  A    between atoms: _353  and  _354
REMARK  150  A    between atoms: _354  and  _355
REMARK  151  A    between atoms: _364  and  _366
REMARK  152  A    between atoms: _366  and  _367
REMARK  153  A    between atoms: _366  and  _369
REMARK  154  A    between atoms: _369  and  _370
REMARK  155  A    between atoms: _370  and  _371
REMARK  156  A    between atoms: _373  and  _375
REMARK  157  A    between atoms: _375  and  _376
REMARK  158  A    between atoms: _375  and  _378
REMARK  159  A    between atoms: _378  and  _379
REMARK  160  A    between atoms: _382  and  _384
REMARK  161  A    between atoms: _384  and  _385
REMARK  162  A    between atoms: _387  and  _389
REMARK  163  A    between atoms: _389  and  _390
REMARK  164  A    between atoms: _389  and  _392
REMARK  165  A    between atoms: _392  and  _393
REMARK  166  A    between atoms: _395  and  _397
REMARK  167  A    between atoms: _397  and  _398
REMARK  168  A    between atoms: _397  and  _400
REMARK  169  A    between atoms: _403  and  _405
REMARK  170  A    between atoms: _405  and  _406
REMARK  171  A    between atoms: _408  and  _410
REMARK  172  A    between atoms: _410  and  _411
REMARK  173  A    between atoms: _413  and  _415
REMARK  174  A    between atoms: _415  and  _416
REMARK  175  A    between atoms: _415  and  _418
REMARK  176  A    between atoms: _418  and  _419
REMARK  177  A    between atoms: _422  and  _424
REMARK  178  A    between atoms: _424  and  _425
REMARK  179  A    between atoms: _424  and  _427
REMARK  180  A    between atoms: _427  and  _428
REMARK  181  A    between atoms: _428  and  _429
REMARK  182  A    between atoms: _431  and  _433
REMARK  183  A    between atoms: _433  and  _434
REMARK  184  A    between atoms: _436  and  _438
REMARK  185  A    between atoms: _438  and  _439
REMARK  186  A    between atoms: _438  and  _441
REMARK  187  A    between atoms: _441  and  _442
REMARK  188  A    between atoms: _446  and  _447
REMARK  189  A    between atoms: _452  and  _454
REMARK  190  A    between atoms: _454  and  _455
REMARK  191  A    between atoms: _454  and  _457
REMARK  192  A    between atoms: _457  and  _458
REMARK  193  A    between atoms: _463  and  _465
REMARK  194  A    between atoms: _465  and  _466
REMARK  195  A    between atoms: _465  and  _468
REMARK  196  A    between atoms: _468  and  _469
REMARK  197  A    between atoms: _474  and  _475
REMARK  198  A    between atoms: _477  and  _479
REMARK  199  A    between atoms: _479  and  _480
REMARK  200  A    between atoms: _479  and  _482
REMARK  201  A    between atoms: _484  and  _486
REMARK  202  A    between atoms: _486  and  _487
REMARK  203  A    between atoms: _486  and  _489
REMARK  204  A    between atoms: _489  and  _490
REMARK  205  A    between atoms: _490  and  _491
REMARK  206  A    between atoms: _491  and  _492
REMARK  207  A    between atoms: _492  and  _493
REMARK  208  A    between atoms: _497  and  _499
REMARK  209  A    between atoms: _499  and  _500
REMARK  210  A    between atoms: _499  and  _502
REMARK  211  A    between atoms: _502  and  _503
REMARK  212  A    between atoms: _503  and  _504
REMARK  213  A    between atoms: _507  and  _509
REMARK  214  A    between atoms: _509  and  _510
REMARK  215  A    between atoms: _509  and  _512
REMARK  216  A    between atoms: _514  and  _516
REMARK  217  A    between atoms: _516  and  _517
REMARK  218  A    between atoms: _520  and  _521
REMARK  219  A    between atoms: _526  and  _528
REMARK  220  A    between atoms: _528  and  _529
REMARK  221  A    between atoms: _528  and  _531
REMARK  222  A    between atoms: _534  and  _536
REMARK  223  A    between atoms: _536  and  _537
REMARK  224  A    between atoms: _536  and  _539
REMARK  225  A    between atoms: _539  and  _540
REMARK  226  A    between atoms: _543  and  _545
REMARK  227  A    between atoms: _545  and  _546
REMARK  228  A    between atoms: _545  and  _548
REMARK  229  A    between atoms: _548  and  _549
REMARK  230  A    between atoms: _555  and  _557
REMARK  231  A    between atoms: _557  and  _558
REMARK  232  A    between atoms: _557  and  _560
REMARK  233  A    between atoms: _560  and  _561
REMARK  234  A    between atoms: _561  and  _562
REMARK  235  A    between atoms: _564  and  _566
REMARK  236  A    between atoms: _566  and  _567
REMARK  237  A    between atoms: _566  and  _569
REMARK  238  A    between atoms: _569  and  _570
REMARK  239  A    between atoms: _570  and  _571
REMARK  240  A    between atoms: _574  and  _576
REMARK  241  A    between atoms: _576  and  _577
REMARK  242  A    between atoms: _576  and  _579
REMARK  243  A    between atoms: _579  and  _580
REMARK  244  A    between atoms: _580  and  _581
REMARK  245  A    between atoms: _581  and  _582
REMARK  246  A    between atoms: _582  and  _583
REMARK  247  A    between atoms: _587  and  _589
REMARK  248  A    between atoms: _589  and  _590
REMARK  249  A    between atoms: _589  and  _592
REMARK  250  A    between atoms: _592  and  _593
REMARK  251  A    between atoms: _598  and  _599
REMARK  252  A    between atoms: _601  and  _603
REMARK  253  A    between atoms: _603  and  _604
REMARK  254  A    between atoms: _603  and  _606
REMARK  255  A    between atoms: _606  and  _607
REMARK  256  A    between atoms: _610  and  _612
REMARK  257  A    between atoms: _612  and  _613
REMARK  258  A    between atoms: _612  and  _615
REMARK  259  A    between atoms: _615  and  _616
REMARK  260  A    between atoms: _621  and  _623
REMARK  261  A    between atoms: _623  and  _624
REMARK  262  A    between atoms: _623  and  _626
REMARK  263  A    between atoms: _626  and  _627
REMARK  264  A    between atoms: _629  and  _631
REMARK  265  A    between atoms: _631  and  _632
REMARK  266  A    between atoms: _631  and  _634
REMARK  267  A    between atoms: _634  and  _635
REMARK  268  A    between atoms: _635  and  _636
REMARK  269  A    between atoms: _636  and  _637
REMARK  270  A    between atoms: _637  and  _638
REMARK  271  A    between atoms: _642  and  _644
REMARK  272  A    between atoms: _644  and  _645
REMARK  273  A    between atoms: _644  and  _647
REMARK  274  A    between atoms: _647  and  _648
REMARK  275  A    between atoms: _648  and  _649
REMARK  276  A    between atoms: _654  and  _656
REMARK  277  A    between atoms: _656  and  _657
REMARK  278  A    between atoms: _656  and  _659
REMARK  279  A    between atoms: _662  and  _664
REMARK  280  A    between atoms: _664  and  _665
REMARK  281  A    between atoms: _664  and  _667
REMARK  282  A    between atoms: _667  and  _668
REMARK  283  A    between atoms: _674  and  _676
REMARK  284  A    between atoms: _676  and  _677
REMARK  285  A    between atoms: _680  and  _682
REMARK  286  A    between atoms: _682  and  _683
REMARK  287  A    between atoms: _682  and  _685
REMARK  288  A    between atoms: _685  and  _686
REMARK  289  A    between atoms: _689  and  _691
REMARK  290  A    between atoms: _691  and  _692
REMARK  291  A    between atoms: _691  and  _694
REMARK  292  A    between atoms: _694  and  _695
REMARK  293  A    between atoms: _695  and  _696
REMARK  294  A    between atoms: _696  and  _697
REMARK  295  A    between atoms: _706  and  _708
REMARK  296  A    between atoms: _708  and  _709
REMARK  297  A    between atoms: _708  and  _711
REMARK  298  A    between atoms: _711  and  _712
REMARK  299  A    between atoms: _718  and  _720
REMARK  300  A    between atoms: _720  and  _721
REMARK  301  A    between atoms: _720  and  _723
REMARK  302  A    between atoms: _723  and  _724
REMARK  303  A    between atoms: _727  and  _729
REMARK  304  A    between atoms: _729  and  _730
REMARK  305  A    between atoms: _729  and  _732
REMARK  306  A    between atoms: _732  and  _733
REMARK  307  A    between atoms: _738  and  _739
REMARK  308  A    between atoms: _741  and  _743
REMARK  309  A    between atoms: _743  and  _744
REMARK  310  A    between atoms: _747  and  _749
REMARK  311  A    between atoms: _749  and  _750
REMARK  312  A    between atoms: _749  and  _752
REMARK  313  A    between atoms: _752  and  _753
REMARK  314  A    between atoms: _753  and  _754
REMARK  315  A    between atoms: _756  and  _758
REMARK  316  A    between atoms: _758  and  _759
REMARK  317  A    between atoms: _758  and  _761
REMARK  318  A    between atoms: _761  and  _762
REMARK  319  A    between atoms: _767  and  _769
REMARK  320  A    between atoms: _769  and  _770
REMARK  321  A    between atoms: _769  and  _772
REMARK  322  A    between atoms: _772  and  _773
REMARK  323  A    between atoms: _773  and  _774
REMARK  324  A    between atoms: _774  and  _775
REMARK  325  A    between atoms: _784  and  _786
REMARK  326  A    between atoms: _786  and  _787
REMARK  327  A    between atoms: _786  and  _789
REMARK  328  A    between atoms: _789  and  _790
REMARK  329  A    between atoms: _790  and  _791
REMARK  330  A    between atoms: _794  and  _796
REMARK  331  A    between atoms: _796  and  _797
REMARK  332  A    between atoms: _796  and  _799
REMARK  333  A    between atoms: _802  and  _804
REMARK  334  A    between atoms: _804  and  _805
REMARK  335  A    between atoms: _804  and  _807
REMARK  336  A    between atoms: _807  and  _808
REMARK                            x       y       z     vdW  Elec       q    Type
REMARK                         _______ _______ _______ _____ _____    ______ ____
ROOT
ATOM      1  O   HOH     1      18.952  -1.331  -2.082  0.00  0.00    +0.000 OA
ENDROOT
TORSDOF 0
REMARK  Name = ../refined-set-2016/1i5r/1i5r_pocket.pdb
REMARK  336 active torsions:
REMARK  status: ('A' for Active; 'I' for Inactive)
REMARK    1  A    between atoms: _1  and  _3
REMARK    2  A    between atoms: _3  and  _4
REMARK    3  A    between atoms: _3  and  _6
REMARK    4  A    between atoms: _6  and  _7
REMARK    5  A    between atoms: _10  and  _12
REMARK    6  A    between atoms: _12  and  _13
REMARK    7  A    between atoms: _12  and  _15
REMARK    8  A    between atoms: _15  and  _16
REMARK    9  A    between atoms: _19  and  _21
REMARK   10  A    between atoms: _21  and  _22
REMARK   11  A    between atoms: _24  and  _26
REMARK   12  A    between atoms: _26  and  _27
REMARK   13  A    between atoms: _26  and  _29
REMARK   14  A    between atoms: _31  and  _33
REMARK   15  A    between atoms: _33  and  _34
REMARK   16  A    between atoms: _33  and  _36
REMARK   17  A    between atoms: _36  and  _37
REMARK   18  A    between atoms: _39  and  _41
REMARK   19  A    between atoms: _41  and  _42
REMARK   20  A    between atoms: _41  and  _44
REMARK   21  A    between atoms: _44  and  _45
REMARK   22  A    between atoms: _47  and  _49
REMARK   23  A    between atoms: _49  and  _50
REMARK   24  A    between atoms: _52  and  _54
REMARK   25  A    between atoms: _54  and  _55
REMARK   26  A    between atoms: _54  and  _57
REMARK   27  A    between atoms: _57  and  _58
REMARK   28  A    between atoms: _61  and  _63
REMARK   29  A    between atoms: _63  and  _64
REMARK   30  A    between atoms: _66  and  _68
REMARK   31  A    between atoms: _68  and  _69
REMARK   32  A    between atoms: _68  and  _71
REMARK   33  A    between atoms: _71  and  _72
REMARK   34  A    between atoms: _75  and  _77
REMARK   35  A    between atoms: _77  and  _78
REMARK   36  A    between atoms: _77  and  _80
REMARK   37  A    between atoms: _80  and  _81
REMARK   38  A    between atoms: _86  and  _88
REMARK   39  A    between atoms: _88  and  _89
REMARK   40  A    between atoms: _88  and  _91
REMARK   41  A    between atoms: _91  and  _92
REMARK   42  A    between atoms: _95  and  _97
REMARK   43  A    between atoms: _97  and  _98
REMARK   44  A    between atoms: _97  and  _100
REMARK   45  A    between atoms: _100  and  _101
REMARK   46  A    between atoms: _104  and  _106
REMARK   47  A    between atoms: _106  and  _107
REMARK   48  A    between atoms: _106  and  _109
REMARK   49  A    between atoms: _109  and  _110
REMARK   50  A    between atoms: _110  and  _111
REMARK   51  A    between atoms: _111  and  _112
REMARK   52  A    between atoms: _121  and  _123
REMARK   53  A    between atoms: _123  and  _124
REMARK   54  A    between atoms: _123  and  _126
REMARK   55  A    between atoms: _126  and  _127
REMARK   56  A    between atoms: _130  and  _132
REMARK   57  A    between atoms: _132  and  _133
REMARK   58  A    between atoms: _132  and  _135
REMARK   59  A    between atoms: _135  and  _136
REMARK   60  A    between atoms: _139  and  _141
REMARK   61  A    between atoms: _141  and  _142
REMARK   62  A    between atoms: _141  and  _144
REMARK   63  A    between atoms: _144  and  _145
REMARK   64  A    between atoms: _145  and  _146
REMARK   65  A    between atoms: _146  and  _147
REMARK   66  A    between atoms: _156  and  _158
REMARK   67  A    between atoms: _158  and  _159
REMARK   68  A    between atoms: _158  and  _161
REMARK   69  A    between atoms: _161  and  _162
REMARK   70  A    between atoms: _165  and  _167
REMARK   71  A    between atoms: _167  and  _168
REMARK   72  A    between atoms: _167  and  _170
REMARK   73  A    between atoms: _170  and  _171
REMARK   74  A    between atoms: _171  and  _172
REMARK   75  A    between atoms: _177  and  _179
REMARK   76  A    between atoms: _179  and  _180
REMARK   77  A    between atoms: _179  and  _182
REMARK   78  A    between atoms: _182  and  _183
REMARK   79  A    between atoms: _186  and  _188
REMARK   80  A    between atoms: _188  and  _189
REMARK   81  A    between atoms: _188  and  _191
REMARK   82  A    between atoms: _191  and  _192
REMARK   83  A    between atoms: _195  and  _197
REMARK   84  A    between atoms: _197  and  _198
REMARK   85  A    between atoms: _197  and  _200
REMARK   86  A    between atoms: _203  and  _205
REMARK   87  A    between atoms: _205  and  _206
REMARK   88  A    between atoms: _205  and  _208
REMARK   89  A    between atoms: _208  and  _209
REMARK   90  A    between atoms: _209  and  _210
REMARK   91  A    between atoms: _210  and  _211
REMARK   92  A    between atoms: _220  and  _222
REMARK   93  A    between atoms: _222  and  _223
REMARK   94  A    between atoms: _222  and  _225
REMARK   95  A    between atoms: _225  and  _226
REMARK   96  A    between atoms: _229  and  _231
REMARK   97  A    between atoms: _231  and  _232
REMARK   98  A    between atoms: _231  and  _234
REMARK   99  A    between atoms: _234  and  _235
REMARK  100  A    between atoms: _237  and  _239
REMARK  101  A    between atoms: _239  and  _240
REMARK  102  A    between atoms: _239  and  _242
REMARK  103  A    between atoms: _245  and  _247
REMARK  104  A    between atoms: _247  and  _248
REMARK  105  A    between atoms: _247  and  _250
REMARK  106  A    between atoms: _252  and  _254
REMARK  107  A    between atoms: _254  and  _255
REMARK  108  A    between atoms: _254  and  _257
REMARK  109  A    between atoms: _257  and  _258
REMARK  110  A    between atoms: _263  and  _265
REMARK  111  A    between atoms: _265  and  _266
REMARK  112  A    between atoms: _269  and  _271
REMARK  113  A    between atoms: _271  and  _272
REMARK  114  A    between atoms: _274  and  _276
REMARK  115  A    between atoms: _276  and  _277
REMARK  116  A    between atoms: _276  and  _279
REMARK  117  A    between atoms: _279  and  _280
REMARK  118  A    between atoms: _283  and  _285
REMARK  119  A    between atoms: _285  and  _286
REMARK  120  A    between atoms: _288  and  _290
REMARK  121  A    between atoms: _290  and  _291
REMARK  122  A    between atoms: _290  and  _293
REMARK  123  A    between atoms: _293  and  _294
REMARK  124  A    between atoms: _297  and  _299
REMARK  125  A    between atoms: _299  and  _300
REMARK  126  A    between atoms: _299  and  _302
REMARK  127  A    between atoms: _302  and  _303
REMARK  128  A    between atoms: _306  and  _308
REMARK  129  A    between atoms: _308  and  _309
REMARK  130  A    between atoms: _308  and  _311
REMARK  131  A    between atoms: _311  and  _312
REMARK  132  A    between atoms: _314  and  _316
REMARK  133  A    between atoms: _316  and  _317
REMARK  134  A    between atoms: _316  and  _319
REMARK  135  A    between atoms: _319  and  _320
REMARK  136  A    between atoms: _323  and  _325
REMARK  137  A    between atoms: _325  and  _326
REMARK  138  A    between atoms: _325  and  _328
REMARK  139  A    between atoms: _331  and  _333
REMARK  140  A    between atoms: _333  and  _334
REMARK  141  A    between atoms: _333  and  _336
REMARK  142  A    between atoms: _336  and  _337
REMARK  143  A    between atoms: _342  and  _344
REMARK  144  A    between atoms: _344  and  _345
REMARK  145  A    between atoms: _347  and  _349
REMARK  146  A    between atoms: _349  and  _350
REMARK  147  A    between atoms: _349  and  _352
REMARK  148  A    between atoms: _352  and  _353
REMARK  149  A    between atoms: _353  and  _354
REMARK  150  A    between atoms: _354  and  _355
REMARK  151  A    between atoms: _364  and  _366
REMARK  152  A    between atoms: _366  and  _367
REMARK  153  A    between atoms: _366  and  _369
REMARK  154  A    between atoms: _369  and  _370
REMARK  155  A    between atoms: _370  and  _371
REMARK  156  A    between atoms: _373  and  _375
REMARK  157  A    between atoms: _375  and  _376
REMARK  158  A    between atoms: _375  and  _378
REMARK  159  A    between atoms: _378  and  _379
REMARK  160  A    between atoms: _382  and  _384
REMARK  161  A    between atoms: _384  and  _385
REMARK  162  A    between atoms: _387  and  _389
REMARK  163  A    between atoms: _389  and  _390
REMARK  164  A    between atoms: _389  and  _392
REMARK  165  A    between atoms: _392  and  _393
REMARK  166  A    between atoms: _395  and  _397
REMARK  167  A    between atoms: _397  and  _398
REMARK  168  A    between atoms: _397  and  _400
REMARK  169  A    between atoms: _403  and  _405
REMARK  170  A    between atoms: _405  and  _406
REMARK  171  A    between atoms: _408  and  _410
REMARK  172  A    between atoms: _410  and  _411
REMARK  173  A    between atoms: _413  and  _415
REMARK  174  A    between atoms: _415  and  _416
REMARK  175  A    between atoms: _415  and  _418
REMARK  176  A    between atoms: _418  and  _419
REMARK  177  A    between atoms: _422  and  _424
REMARK  178  A    between atoms: _424  and  _425
REMARK  179  A    between atoms: _424  and  _427
REMARK  180  A    between atoms: _427  and  _428
REMARK  181  A    between atoms: _428  and  _429
REMARK  182  A    between atoms: _431  and  _433
REMARK  183  A    between atoms: _433  and  _434
REMARK  184  A    between atoms: _436  and  _438
REMARK  185  A    between atoms: _438  and  _439
REMARK  186  A    between atoms: _438  and  _441
REMARK  187  A    between atoms: _441  and  _442
REMARK  188  A    between atoms: _446  and  _447
REMARK  189  A    between atoms: _452  and  _454
REMARK  190  A    between atoms: _454  and  _455
REMARK  191  A    between atoms: _454  and  _457
REMARK  192  A    between atoms: _457  and  _458
REMARK  193  A    between atoms: _463  and  _465
REMARK  194  A    between atoms: _465  and  _466
REMARK  195  A    between atoms: _465  and  _468
REMARK  196  A    between atoms: _468  and  _469
REMARK  197  A    between atoms: _474  and  _475
REMARK  198  A    between atoms: _477  and  _479
REMARK  199  A    between atoms: _479  and  _480
REMARK  200  A    between atoms: _479  and  _482
REMARK  201  A    between atoms: _484  and  _486
REMARK  202  A    between atoms: _486  and  _487
REMARK  203  A    between atoms: _486  and  _489
REMARK  204  A    between atoms: _489  and  _490
REMARK  205  A    between atoms: _490  and  _491
REMARK  206  A    between atoms: _491  and  _492
REMARK  207  A    between atoms: _492  and  _493
REMARK  208  A    between atoms: _497  and  _499
REMARK  209  A    between atoms: _499  and  _500
REMARK  210  A    between atoms: _499  and  _502
REMARK  211  A    between atoms: _502  and  _503
REMARK  212  A    between atoms: _503  and  _504
REMARK  213  A    between atoms: _507  and  _509
REMARK  214  A    between atoms: _509  and  _510
REMARK  215  A    between atoms: _509  and  _512
REMARK  216  A    between atoms: _514  and  _516
REMARK  217  A    between atoms: _516  and  _517
REMARK  218  A    between atoms: _520  and  _521
REMARK  219  A    between atoms: _526  and  _528
REMARK  220  A    between atoms: _528  and  _529
REMARK  221  A    between atoms: _528  and  _531
REMARK  222  A    between atoms: _534  and  _536
REMARK  223  A    between atoms: _536  and  _537
REMARK  224  A    between atoms: _536  and  _539
REMARK  225  A    between atoms: _539  and  _540
REMARK  226  A    between atoms: _543  and  _545
REMARK  227  A    between atoms: _545  and  _546
REMARK  228  A    between atoms: _545  and  _548
REMARK  229  A    between atoms: _548  and  _549
REMARK  230  A    between atoms: _555  and  _557
REMARK  231  A    between atoms: _557  and  _558
REMARK  232  A    between atoms: _557  and  _560
REMARK  233  A    between atoms: _560  and  _561
REMARK  234  A    between atoms: _561  and  _562
REMARK  235  A    between atoms: _564  and  _566
REMARK  236  A    between atoms: _566  and  _567
REMARK  237  A    between atoms: _566  and  _569
REMARK  238  A    between atoms: _569  and  _570
REMARK  239  A    between atoms: _570  and  _571
REMARK  240  A    between atoms: _574  and  _576
REMARK  241  A    between atoms: _576  and  _577
REMARK  242  A    between atoms: _576  and  _579
REMARK  243  A    between atoms: _579  and  _580
REMARK  244  A    between atoms: _580  and  _581
REMARK  245  A    between atoms: _581  and  _582
REMARK  246  A    between atoms: _582  and  _583
REMARK  247  A    between atoms: _587  and  _589
REMARK  248  A    between atoms: _589  and  _590
REMARK  249  A    between atoms: _589  and  _592
REMARK  250  A    between atoms: _592  and  _593
REMARK  251  A    between atoms: _598  and  _599
REMARK  252  A    between atoms: _601  and  _603
REMARK  253  A    between atoms: _603  and  _604
REMARK  254  A    between atoms: _603  and  _606
REMARK  255  A    between atoms: _606  and  _607
REMARK  256  A    between atoms: _610  and  _612
REMARK  257  A    between atoms: _612  and  _613
REMARK  258  A    between atoms: _612  and  _615
REMARK  259  A    between atoms: _615  and  _616
REMARK  260  A    between atoms: _621  and  _623
REMARK  261  A    between atoms: _623  and  _624
REMARK  262  A    between atoms: _623  and  _626
REMARK  263  A    between atoms: _626  and  _627
REMARK  264  A    between atoms: _629  and  _631
REMARK  265  A    between atoms: _631  and  _632
REMARK  266  A    between atoms: _631  and  _634
REMARK  267  A    between atoms: _634  and  _635
REMARK  268  A    between atoms: _635  and  _636
REMARK  269  A    between atoms: _636  and  _637
REMARK  270  A    between atoms: _637  and  _638
REMARK  271  A    between atoms: _642  and  _644
REMARK  272  A    between atoms: _644  and  _645
REMARK  273  A    between atoms: _644  and  _647
REMARK  274  A    between atoms: _647  and  _648
REMARK  275  A    between atoms: _648  and  _649
REMARK  276  A    between atoms: _654  and  _656
REMARK  277  A    between atoms: _656  and  _657
REMARK  278  A    between atoms: _656  and  _659
REMARK  279  A    between atoms: _662  and  _664
REMARK  280  A    between atoms: _664  and  _665
REMARK  281  A    between atoms: _664  and  _667
REMARK  282  A    between atoms: _667  and  _668
REMARK  283  A    between atoms: _674  and  _676
REMARK  284  A    between atoms: _676  and  _677
REMARK  285  A    between atoms: _680  and  _682
REMARK  286  A    between atoms: _682  and  _683
REMARK  287  A    between atoms: _682  and  _685
REMARK  288  A    between atoms: _685  and  _686
REMARK  289  A    between atoms: _689  and  _691
REMARK  290  A    between atoms: _691  and  _692
REMARK  291  A    between atoms: _691  and  _694
REMARK  292  A    between atoms: _694  and  _695
REMARK  293  A    between atoms: _695  and  _696
REMARK  294  A    between atoms: _696  and  _697
REMARK  295  A    between atoms: _706  and  _708
REMARK  296  A    between atoms: _708  and  _709
REMARK  297  A    between atoms: _708  and  _711
REMARK  298  A    between atoms: _711  and  _712
REMARK  299  A    between atoms: _718  and  _720
REMARK  300  A    between atoms: _720  and  _721
REMARK  301  A    between atoms: _720  and  _723
REMARK  302  A    between atoms: _723  and  _724
REMARK  303  A    between atoms: _727  and  _729
REMARK  304  A    between atoms: _729  and  _730
REMARK  305  A    between atoms: _729  and  _732
REMARK  306  A    between atoms: _732  and  _733
REMARK  307  A    between atoms: _738  and  _739
REMARK  308  A    between atoms: _741  and  _743
REMARK  309  A    between atoms: _743  and  _744
REMARK  310  A    between atoms: _747  and  _749
REMARK  311  A    between atoms: _749  and  _750
REMARK  312  A    between atoms: _749  and  _752
REMARK  313  A    between atoms: _752  and  _753
REMARK  314  A    between atoms: _753  and  _754
REMARK  315  A    between atoms: _756  and  _758
REMARK  316  A    between atoms: _758  and  _759
REMARK  317  A    between atoms: _758  and  _761
REMARK  318  A    between atoms: _761  and  _762
REMARK  319  A    between atoms: _767  and  _769
REMARK  320  A    between atoms: _769  and  _770
REMARK  321  A    between atoms: _769  and  _772
REMARK  322  A    between atoms: _772  and  _773
REMARK  323  A    between atoms: _773  and  _774
REMARK  324  A    between atoms: _774  and  _775
REMARK  325  A    between atoms: _784  and  _786
REMARK  326  A    between atoms: _786  and  _787
REMARK  327  A    between atoms: _786  and  _789
REMARK  328  A    between atoms: _789  and  _790
REMARK  329  A    between atoms: _790  and  _791
REMARK  330  A    between atoms: _794  and  _796
REMARK  331  A    between atoms: _796  and  _797
REMARK  332  A    between atoms: _796  and  _799
REMARK  333  A    between atoms: _802  and  _804
REMARK  334  A    between atoms: _804  and  _805
REMARK  335  A    between atoms: _804  and  _807
REMARK  336  A    between atoms: _807  and  _808
REMARK                            x       y       z     vdW  Elec       q    Type
REMARK                         _______ _______ _______ _____ _____    ______ ____
ROOT
ATOM      1  O   HOH     1       7.595   6.167  -0.081  0.00  0.00    +0.000 OA
ENDROOT
TORSDOF 0
REMARK  Name = ../refined-set-2016/1i5r/1i5r_pocket.pdb
REMARK  336 active torsions:
REMARK  status: ('A' for Active; 'I' for Inactive)
REMARK    1  A    between atoms: _1  and  _3
REMARK    2  A    between atoms: _3  and  _4
REMARK    3  A    between atoms: _3  and  _6
REMARK    4  A    between atoms: _6  and  _7
REMARK    5  A    between atoms: _10  and  _12
REMARK    6  A    between atoms: _12  and  _13
REMARK    7  A    between atoms: _12  and  _15
REMARK    8  A    between atoms: _15  and  _16
REMARK    9  A    between atoms: _19  and  _21
REMARK   10  A    between atoms: _21  and  _22
REMARK   11  A    between atoms: _24  and  _26
REMARK   12  A    between atoms: _26  and  _27
REMARK   13  A    between atoms: _26  and  _29
REMARK   14  A    between atoms: _31  and  _33
REMARK   15  A    between atoms: _33  and  _34
REMARK   16  A    between atoms: _33  and  _36
REMARK   17  A    between atoms: _36  and  _37
REMARK   18  A    between atoms: _39  and  _41
REMARK   19  A    between atoms: _41  and  _42
REMARK   20  A    between atoms: _41  and  _44
REMARK   21  A    between atoms: _44  and  _45
REMARK   22  A    between atoms: _47  and  _49
REMARK   23  A    between atoms: _49  and  _50
REMARK   24  A    between atoms: _52  and  _54
REMARK   25  A    between atoms: _54  and  _55
REMARK   26  A    between atoms: _54  and  _57
REMARK   27  A    between atoms: _57  and  _58
REMARK   28  A    between atoms: _61  and  _63
REMARK   29  A    between atoms: _63  and  _64
REMARK   30  A    between atoms: _66  and  _68
REMARK   31  A    between atoms: _68  and  _69
REMARK   32  A    between atoms: _68  and  _71
REMARK   33  A    between atoms: _71  and  _72
REMARK   34  A    between atoms: _75  and  _77
REMARK   35  A    between atoms: _77  and  _78
REMARK   36  A    between atoms: _77  and  _80
REMARK   37  A    between atoms: _80  and  _81
REMARK   38  A    between atoms: _86  and  _88
REMARK   39  A    between atoms: _88  and  _89
REMARK   40  A    between atoms: _88  and  _91
REMARK   41  A    between atoms: _91  and  _92
REMARK   42  A    between atoms: _95  and  _97
REMARK   43  A    between atoms: _97  and  _98
REMARK   44  A    between atoms: _97  and  _100
REMARK   45  A    between atoms: _100  and  _101
REMARK   46  A    between atoms: _104  and  _106
REMARK   47  A    between atoms: _106  and  _107
REMARK   48  A    between atoms: _106  and  _109
REMARK   49  A    between atoms: _109  and  _110
REMARK   50  A    between atoms: _110  and  _111
REMARK   51  A    between atoms: _111  and  _112
REMARK   52  A    between atoms: _121  and  _123
REMARK   53  A    between atoms: _123  and  _124
REMARK   54  A    between atoms: _123  and  _126
REMARK   55  A    between atoms: _126  and  _127
REMARK   56  A    between atoms: _130  and  _132
REMARK   57  A    between atoms: _132  and  _133
REMARK   58  A    between atoms: _132  and  _135
REMARK   59  A    between atoms: _135  and  _136
REMARK   60  A    between atoms: _139  and  _141
REMARK   61  A    between atoms: _141  and  _142
REMARK   62  A    between atoms: _141  and  _144
REMARK   63  A    between atoms: _144  and  _145
REMARK   64  A    between atoms: _145  and  _146
REMARK   65  A    between atoms: _146  and  _147
REMARK   66  A    between atoms: _156  and  _158
REMARK   67  A    between atoms: _158  and  _159
REMARK   68  A    between atoms: _158  and  _161
REMARK   69  A    between atoms: _161  and  _162
REMARK   70  A    between atoms: _165  and  _167
REMARK   71  A    between atoms: _167  and  _168
REMARK   72  A    between atoms: _167  and  _170
REMARK   73  A    between atoms: _170  and  _171
REMARK   74  A    between atoms: _171  and  _172
REMARK   75  A    between atoms: _177  and  _179
REMARK   76  A    between atoms: _179  and  _180
REMARK   77  A    between atoms: _179  and  _182
REMARK   78  A    between atoms: _182  and  _183
REMARK   79  A    between atoms: _186  and  _188
REMARK   80  A    between atoms: _188  and  _189
REMARK   81  A    between atoms: _188  and  _191
REMARK   82  A    between atoms: _191  and  _192
REMARK   83  A    between atoms: _195  and  _197
REMARK   84  A    between atoms: _197  and  _198
REMARK   85  A    between atoms: _197  and  _200
REMARK   86  A    between atoms: _203  and  _205
REMARK   87  A    between atoms: _205  and  _206
REMARK   88  A    between atoms: _205  and  _208
REMARK   89  A    between atoms: _208  and  _209
REMARK   90  A    between atoms: _209  and  _210
REMARK   91  A    between atoms: _210  and  _211
REMARK   92  A    between atoms: _220  and  _222
REMARK   93  A    between atoms: _222  and  _223
REMARK   94  A    between atoms: _222  and  _225
REMARK   95  A    between atoms: _225  and  _226
REMARK   96  A    between atoms: _229  and  _231
REMARK   97  A    between atoms: _231  and  _232
REMARK   98  A    between atoms: _231  and  _234
REMARK   99  A    between atoms: _234  and  _235
REMARK  100  A    between atoms: _237  and  _239
REMARK  101  A    between atoms: _239  and  _240
REMARK  102  A    between atoms: _239  and  _242
REMARK  103  A    between atoms: _245  and  _247
REMARK  104  A    between atoms: _247  and  _248
REMARK  105  A    between atoms: _247  and  _250
REMARK  106  A    between atoms: _252  and  _254
REMARK  107  A    between atoms: _254  and  _255
REMARK  108  A    between atoms: _254  and  _257
REMARK  109  A    between atoms: _257  and  _258
REMARK  110  A    between atoms: _263  and  _265
REMARK  111  A    between atoms: _265  and  _266
REMARK  112  A    between atoms: _269  and  _271
REMARK  113  A    between atoms: _271  and  _272
REMARK  114  A    between atoms: _274  and  _276
REMARK  115  A    between atoms: _276  and  _277
REMARK  116  A    between atoms: _276  and  _279
REMARK  117  A    between atoms: _279  and  _280
REMARK  118  A    between atoms: _283  and  _285
REMARK  119  A    between atoms: _285  and  _286
REMARK  120  A    between atoms: _288  and  _290
REMARK  121  A    between atoms: _290  and  _291
REMARK  122  A    between atoms: _290  and  _293
REMARK  123  A    between atoms: _293  and  _294
REMARK  124  A    between atoms: _297  and  _299
REMARK  125  A    between atoms: _299  and  _300
REMARK  126  A    between atoms: _299  and  _302
REMARK  127  A    between atoms: _302  and  _303
REMARK  128  A    between atoms: _306  and  _308
REMARK  129  A    between atoms: _308  and  _309
REMARK  130  A    between atoms: _308  and  _311
REMARK  131  A    between atoms: _311  and  _312
REMARK  132  A    between atoms: _314  and  _316
REMARK  133  A    between atoms: _316  and  _317
REMARK  134  A    between atoms: _316  and  _319
REMARK  135  A    between atoms: _319  and  _320
REMARK  136  A    between atoms: _323  and  _325
REMARK  137  A    between atoms: _325  and  _326
REMARK  138  A    between atoms: _325  and  _328
REMARK  139  A    between atoms: _331  and  _333
REMARK  140  A    between atoms: _333  and  _334
REMARK  141  A    between atoms: _333  and  _336
REMARK  142  A    between atoms: _336  and  _337
REMARK  143  A    between atoms: _342  and  _344
REMARK  144  A    between atoms: _344  and  _345
REMARK  145  A    between atoms: _347  and  _349
REMARK  146  A    between atoms: _349  and  _350
REMARK  147  A    between atoms: _349  and  _352
REMARK  148  A    between atoms: _352  and  _353
REMARK  149  A    between atoms: _353  and  _354
REMARK  150  A    between atoms: _354  and  _355
REMARK  151  A    between atoms: _364  and  _366
REMARK  152  A    between atoms: _366  and  _367
REMARK  153  A    between atoms: _366  and  _369
REMARK  154  A    between atoms: _369  and  _370
REMARK  155  A    between atoms: _370  and  _371
REMARK  156  A    between atoms: _373  and  _375
REMARK  157  A    between atoms: _375  and  _376
REMARK  158  A    between atoms: _375  and  _378
REMARK  159  A    between atoms: _378  and  _379
REMARK  160  A    between atoms: _382  and  _384
REMARK  161  A    between atoms: _384  and  _385
REMARK  162  A    between atoms: _387  and  _389
REMARK  163  A    between atoms: _389  and  _390
REMARK  164  A    between atoms: _389  and  _392
REMARK  165  A    between atoms: _392  and  _393
REMARK  166  A    between atoms: _395  and  _397
REMARK  167  A    between atoms: _397  and  _398
REMARK  168  A    between atoms: _397  and  _400
REMARK  169  A    between atoms: _403  and  _405
REMARK  170  A    between atoms: _405  and  _406
REMARK  171  A    between atoms: _408  and  _410
REMARK  172  A    between atoms: _410  and  _411
REMARK  173  A    between atoms: _413  and  _415
REMARK  174  A    between atoms: _415  and  _416
REMARK  175  A    between atoms: _415  and  _418
REMARK  176  A    between atoms: _418  and  _419
REMARK  177  A    between atoms: _422  and  _424
REMARK  178  A    between atoms: _424  and  _425
REMARK  179  A    between atoms: _424  and  _427
REMARK  180  A    between atoms: _427  and  _428
REMARK  181  A    between atoms: _428  and  _429
REMARK  182  A    between atoms: _431  and  _433
REMARK  183  A    between atoms: _433  and  _434
REMARK  184  A    between atoms: _436  and  _438
REMARK  185  A    between atoms: _438  and  _439
REMARK  186  A    between atoms: _438  and  _441
REMARK  187  A    between atoms: _441  and  _442
REMARK  188  A    between atoms: _446  and  _447
REMARK  189  A    between atoms: _452  and  _454
REMARK  190  A    between atoms: _454  and  _455
REMARK  191  A    between atoms: _454  and  _457
REMARK  192  A    between atoms: _457  and  _458
REMARK  193  A    between atoms: _463  and  _465
REMARK  194  A    between atoms: _465  and  _466
REMARK  195  A    between atoms: _465  and  _468
REMARK  196  A    between atoms: _468  and  _469
REMARK  197  A    between atoms: _474  and  _475
REMARK  198  A    between atoms: _477  and  _479
REMARK  199  A    between atoms: _479  and  _480
REMARK  200  A    between atoms: _479  and  _482
REMARK  201  A    between atoms: _484  and  _486
REMARK  202  A    between atoms: _486  and  _487
REMARK  203  A    between atoms: _486  and  _489
REMARK  204  A    between atoms: _489  and  _490
REMARK  205  A    between atoms: _490  and  _491
REMARK  206  A    between atoms: _491  and  _492
REMARK  207  A    between atoms: _492  and  _493
REMARK  208  A    between atoms: _497  and  _499
REMARK  209  A    between atoms: _499  and  _500
REMARK  210  A    between atoms: _499  and  _502
REMARK  211  A    between atoms: _502  and  _503
REMARK  212  A    between atoms: _503  and  _504
REMARK  213  A    between atoms: _507  and  _509
REMARK  214  A    between atoms: _509  and  _510
REMARK  215  A    between atoms: _509  and  _512
REMARK  216  A    between atoms: _514  and  _516
REMARK  217  A    between atoms: _516  and  _517
REMARK  218  A    between atoms: _520  and  _521
REMARK  219  A    between atoms: _526  and  _528
REMARK  220  A    between atoms: _528  and  _529
REMARK  221  A    between atoms: _528  and  _531
REMARK  222  A    between atoms: _534  and  _536
REMARK  223  A    between atoms: _536  and  _537
REMARK  224  A    between atoms: _536  and  _539
REMARK  225  A    between atoms: _539  and  _540
REMARK  226  A    between atoms: _543  and  _545
REMARK  227  A    between atoms: _545  and  _546
REMARK  228  A    between atoms: _545  and  _548
REMARK  229  A    between atoms: _548  and  _549
REMARK  230  A    between atoms: _555  and  _557
REMARK  231  A    between atoms: _557  and  _558
REMARK  232  A    between atoms: _557  and  _560
REMARK  233  A    between atoms: _560  and  _561
REMARK  234  A    between atoms: _561  and  _562
REMARK  235  A    between atoms: _564  and  _566
REMARK  236  A    between atoms: _566  and  _567
REMARK  237  A    between atoms: _566  and  _569
REMARK  238  A    between atoms: _569  and  _570
REMARK  239  A    between atoms: _570  and  _571
REMARK  240  A    between atoms: _574  and  _576
REMARK  241  A    between atoms: _576  and  _577
REMARK  242  A    between atoms: _576  and  _579
REMARK  243  A    between atoms: _579  and  _580
REMARK  244  A    between atoms: _580  and  _581
REMARK  245  A    between atoms: _581  and  _582
REMARK  246  A    between atoms: _582  and  _583
REMARK  247  A    between atoms: _587  and  _589
REMARK  248  A    between atoms: _589  and  _590
REMARK  249  A    between atoms: _589  and  _592
REMARK  250  A    between atoms: _592  and  _593
REMARK  251  A    between atoms: _598  and  _599
REMARK  252  A    between atoms: _601  and  _603
REMARK  253  A    between atoms: _603  and  _604
REMARK  254  A    between atoms: _603  and  _606
REMARK  255  A    between atoms: _606  and  _607
REMARK  256  A    between atoms: _610  and  _612
REMARK  257  A    between atoms: _612  and  _613
REMARK  258  A    between atoms: _612  and  _615
REMARK  259  A    between atoms: _615  and  _616
REMARK  260  A    between atoms: _621  and  _623
REMARK  261  A    between atoms: _623  and  _624
REMARK  262  A    between atoms: _623  and  _626
REMARK  263  A    between atoms: _626  and  _627
REMARK  264  A    between atoms: _629  and  _631
REMARK  265  A    between atoms: _631  and  _632
REMARK  266  A    between atoms: _631  and  _634
REMARK  267  A    between atoms: _634  and  _635
REMARK  268  A    between atoms: _635  and  _636
REMARK  269  A    between atoms: _636  and  _637
REMARK  270  A    between atoms: _637  and  _638
REMARK  271  A    between atoms: _642  and  _644
REMARK  272  A    between atoms: _644  and  _645
REMARK  273  A    between atoms: _644  and  _647
REMARK  274  A    between atoms: _647  and  _648
REMARK  275  A    between atoms: _648  and  _649
REMARK  276  A    between atoms: _654  and  _656
REMARK  277  A    between atoms: _656  and  _657
REMARK  278  A    between atoms: _656  and  _659
REMARK  279  A    between atoms: _662  and  _664
REMARK  280  A    between atoms: _664  and  _665
REMARK  281  A    between atoms: _664  and  _667
REMARK  282  A    between atoms: _667  and  _668
REMARK  283  A    between atoms: _674  and  _676
REMARK  284  A    between atoms: _676  and  _677
REMARK  285  A    between atoms: _680  and  _682
REMARK  286  A    between atoms: _682  and  _683
REMARK  287  A    between atoms: _682  and  _685
REMARK  288  A    between atoms: _685  and  _686
REMARK  289  A    between atoms: _689  and  _691
REMARK  290  A    between atoms: _691  and  _692
REMARK  291  A    between atoms: _691  and  _694
REMARK  292  A    between atoms: _694  and  _695
REMARK  293  A    between atoms: _695  and  _696
REMARK  294  A    between atoms: _696  and  _697
REMARK  295  A    between atoms: _706  and  _708
REMARK  296  A    between atoms: _708  and  _709
REMARK  297  A    between atoms: _708  and  _711
REMARK  298  A    between atoms: _711  and  _712
REMARK  299  A    between atoms: _718  and  _720
REMARK  300  A    between atoms: _720  and  _721
REMARK  301  A    between atoms: _720  and  _723
REMARK  302  A    between atoms: _723  and  _724
REMARK  303  A    between atoms: _727  and  _729
REMARK  304  A    between atoms: _729  and  _730
REMARK  305  A    between atoms: _729  and  _732
REMARK  306  A    between atoms: _732  and  _733
REMARK  307  A    between atoms: _738  and  _739
REMARK  308  A    between atoms: _741  and  _743
REMARK  309  A    between atoms: _743  and  _744
REMARK  310  A    between atoms: _747  and  _749
REMARK  311  A    between atoms: _749  and  _750
REMARK  312  A    between atoms: _749  and  _752
REMARK  313  A    between atoms: _752  and  _753
REMARK  314  A    between atoms: _753  and  _754
REMARK  315  A    between atoms: _756  and  _758
REMARK  316  A    between atoms: _758  and  _759
REMARK  317  A    between atoms: _758  and  _761
REMARK  318  A    between atoms: _761  and  _762
REMARK  319  A    between atoms: _767  and  _769
REMARK  320  A    between atoms: _769  and  _770
REMARK  321  A    between atoms: _769  and  _772
REMARK  322  A    between atoms: _772  and  _773
REMARK  323  A    between atoms: _773  and  _774
REMARK  324  A    between atoms: _774  and  _775
REMARK  325  A    between atoms: _784  and  _786
REMARK  326  A    between atoms: _786  and  _787
REMARK  327  A    between atoms: _786  and  _789
REMARK  328  A    between atoms: _789  and  _790
REMARK  329  A    between atoms: _790  and  _791
REMARK  330  A    between atoms: _794  and  _796
REMARK  331  A    between atoms: _796  and  _797
REMARK  332  A    between atoms: _796  and  _799
REMARK  333  A    between atoms: _802  and  _804
REMARK  334  A    between atoms: _804  and  _805
REMARK  335  A    between atoms: _804  and  _807
REMARK  336  A    between atoms: _807  and  _808
REMARK                            x       y       z     vdW  Elec       q    Type
REMARK                         _______ _______ _______ _____ _____    ______ ____
ROOT
ATOM      1  O   HOH     1      11.590   0.469   1.671  0.00  0.00    +0.000 OA
ENDROOT
TORSDOF 0
REMARK  Name = ../refined-set-2016/1i5r/1i5r_pocket.pdb
REMARK  336 active torsions:
REMARK  status: ('A' for Active; 'I' for Inactive)
REMARK    1  A    between atoms: _1  and  _3
REMARK    2  A    between atoms: _3  and  _4
REMARK    3  A    between atoms: _3  and  _6
REMARK    4  A    between atoms: _6  and  _7
REMARK    5  A    between atoms: _10  and  _12
REMARK    6  A    between atoms: _12  and  _13
REMARK    7  A    between atoms: _12  and  _15
REMARK    8  A    between atoms: _15  and  _16
REMARK    9  A    between atoms: _19  and  _21
REMARK   10  A    between atoms: _21  and  _22
REMARK   11  A    between atoms: _24  and  _26
REMARK   12  A    between atoms: _26  and  _27
REMARK   13  A    between atoms: _26  and  _29
REMARK   14  A    between atoms: _31  and  _33
REMARK   15  A    between atoms: _33  and  _34
REMARK   16  A    between atoms: _33  and  _36
REMARK   17  A    between atoms: _36  and  _37
REMARK   18  A    between atoms: _39  and  _41
REMARK   19  A    between atoms: _41  and  _42
REMARK   20  A    between atoms: _41  and  _44
REMARK   21  A    between atoms: _44  and  _45
REMARK   22  A    between atoms: _47  and  _49
REMARK   23  A    between atoms: _49  and  _50
REMARK   24  A    between atoms: _52  and  _54
REMARK   25  A    between atoms: _54  and  _55
REMARK   26  A    between atoms: _54  and  _57
REMARK   27  A    between atoms: _57  and  _58
REMARK   28  A    between atoms: _61  and  _63
REMARK   29  A    between atoms: _63  and  _64
REMARK   30  A    between atoms: _66  and  _68
REMARK   31  A    between atoms: _68  and  _69
REMARK   32  A    between atoms: _68  and  _71
REMARK   33  A    between atoms: _71  and  _72
REMARK   34  A    between atoms: _75  and  _77
REMARK   35  A    between atoms: _77  and  _78
REMARK   36  A    between atoms: _77  and  _80
REMARK   37  A    between atoms: _80  and  _81
REMARK   38  A    between atoms: _86  and  _88
REMARK   39  A    between atoms: _88  and  _89
REMARK   40  A    between atoms: _88  and  _91
REMARK   41  A    between atoms: _91  and  _92
REMARK   42  A    between atoms: _95  and  _97
REMARK   43  A    between atoms: _97  and  _98
REMARK   44  A    between atoms: _97  and  _100
REMARK   45  A    between atoms: _100  and  _101
REMARK   46  A    between atoms: _104  and  _106
REMARK   47  A    between atoms: _106  and  _107
REMARK   48  A    between atoms: _106  and  _109
REMARK   49  A    between atoms: _109  and  _110
REMARK   50  A    between atoms: _110  and  _111
REMARK   51  A    between atoms: _111  and  _112
REMARK   52  A    between atoms: _121  and  _123
REMARK   53  A    between atoms: _123  and  _124
REMARK   54  A    between atoms: _123  and  _126
REMARK   55  A    between atoms: _126  and  _127
REMARK   56  A    between atoms: _130  and  _132
REMARK   57  A    between atoms: _132  and  _133
REMARK   58  A    between atoms: _132  and  _135
REMARK   59  A    between atoms: _135  and  _136
REMARK   60  A    between atoms: _139  and  _141
REMARK   61  A    between atoms: _141  and  _142
REMARK   62  A    between atoms: _141  and  _144
REMARK   63  A    between atoms: _144  and  _145
REMARK   64  A    between atoms: _145  and  _146
REMARK   65  A    between atoms: _146  and  _147
REMARK   66  A    between atoms: _156  and  _158
REMARK   67  A    between atoms: _158  and  _159
REMARK   68  A    between atoms: _158  and  _161
REMARK   69  A    between atoms: _161  and  _162
REMARK   70  A    between atoms: _165  and  _167
REMARK   71  A    between atoms: _167  and  _168
REMARK   72  A    between atoms: _167  and  _170
REMARK   73  A    between atoms: _170  and  _171
REMARK   74  A    between atoms: _171  and  _172
REMARK   75  A    between atoms: _177  and  _179
REMARK   76  A    between atoms: _179  and  _180
REMARK   77  A    between atoms: _179  and  _182
REMARK   78  A    between atoms: _182  and  _183
REMARK   79  A    between atoms: _186  and  _188
REMARK   80  A    between atoms: _188  and  _189
REMARK   81  A    between atoms: _188  and  _191
REMARK   82  A    between atoms: _191  and  _192
REMARK   83  A    between atoms: _195  and  _197
REMARK   84  A    between atoms: _197  and  _198
REMARK   85  A    between atoms: _197  and  _200
REMARK   86  A    between atoms: _203  and  _205
REMARK   87  A    between atoms: _205  and  _206
REMARK   88  A    between atoms: _205  and  _208
REMARK   89  A    between atoms: _208  and  _209
REMARK   90  A    between atoms: _209  and  _210
REMARK   91  A    between atoms: _210  and  _211
REMARK   92  A    between atoms: _220  and  _222
REMARK   93  A    between atoms: _222  and  _223
REMARK   94  A    between atoms: _222  and  _225
REMARK   95  A    between atoms: _225  and  _226
REMARK   96  A    between atoms: _229  and  _231
REMARK   97  A    between atoms: _231  and  _232
REMARK   98  A    between atoms: _231  and  _234
REMARK   99  A    between atoms: _234  and  _235
REMARK  100  A    between atoms: _237  and  _239
REMARK  101  A    between atoms: _239  and  _240
REMARK  102  A    between atoms: _239  and  _242
REMARK  103  A    between atoms: _245  and  _247
REMARK  104  A    between atoms: _247  and  _248
REMARK  105  A    between atoms: _247  and  _250
REMARK  106  A    between atoms: _252  and  _254
REMARK  107  A    between atoms: _254  and  _255
REMARK  108  A    between atoms: _254  and  _257
REMARK  109  A    between atoms: _257  and  _258
REMARK  110  A    between atoms: _263  and  _265
REMARK  111  A    between atoms: _265  and  _266
REMARK  112  A    between atoms: _269  and  _271
REMARK  113  A    between atoms: _271  and  _272
REMARK  114  A    between atoms: _274  and  _276
REMARK  115  A    between atoms: _276  and  _277
REMARK  116  A    between atoms: _276  and  _279
REMARK  117  A    between atoms: _279  and  _280
REMARK  118  A    between atoms: _283  and  _285
REMARK  119  A    between atoms: _285  and  _286
REMARK  120  A    between atoms: _288  and  _290
REMARK  121  A    between atoms: _290  and  _291
REMARK  122  A    between atoms: _290  and  _293
REMARK  123  A    between atoms: _293  and  _294
REMARK  124  A    between atoms: _297  and  _299
REMARK  125  A    between atoms: _299  and  _300
REMARK  126  A    between atoms: _299  and  _302
REMARK  127  A    between atoms: _302  and  _303
REMARK  128  A    between atoms: _306  and  _308
REMARK  129  A    between atoms: _308  and  _309
REMARK  130  A    between atoms: _308  and  _311
REMARK  131  A    between atoms: _311  and  _312
REMARK  132  A    between atoms: _314  and  _316
REMARK  133  A    between atoms: _316  and  _317
REMARK  134  A    between atoms: _316  and  _319
REMARK  135  A    between atoms: _319  and  _320
REMARK  136  A    between atoms: _323  and  _325
REMARK  137  A    between atoms: _325  and  _326
REMARK  138  A    between atoms: _325  and  _328
REMARK  139  A    between atoms: _331  and  _333
REMARK  140  A    between atoms: _333  and  _334
REMARK  141  A    between atoms: _333  and  _336
REMARK  142  A    between atoms: _336  and  _337
REMARK  143  A    between atoms: _342  and  _344
REMARK  144  A    between atoms: _344  and  _345
REMARK  145  A    between atoms: _347  and  _349
REMARK  146  A    between atoms: _349  and  _350
REMARK  147  A    between atoms: _349  and  _352
REMARK  148  A    between atoms: _352  and  _353
REMARK  149  A    between atoms: _353  and  _354
REMARK  150  A    between atoms: _354  and  _355
REMARK  151  A    between atoms: _364  and  _366
REMARK  152  A    between atoms: _366  and  _367
REMARK  153  A    between atoms: _366  and  _369
REMARK  154  A    between atoms: _369  and  _370
REMARK  155  A    between atoms: _370  and  _371
REMARK  156  A    between atoms: _373  and  _375
REMARK  157  A    between atoms: _375  and  _376
REMARK  158  A    between atoms: _375  and  _378
REMARK  159  A    between atoms: _378  and  _379
REMARK  160  A    between atoms: _382  and  _384
REMARK  161  A    between atoms: _384  and  _385
REMARK  162  A    between atoms: _387  and  _389
REMARK  163  A    between atoms: _389  and  _390
REMARK  164  A    between atoms: _389  and  _392
REMARK  165  A    between atoms: _392  and  _393
REMARK  166  A    between atoms: _395  and  _397
REMARK  167  A    between atoms: _397  and  _398
REMARK  168  A    between atoms: _397  and  _400
REMARK  169  A    between atoms: _403  and  _405
REMARK  170  A    between atoms: _405  and  _406
REMARK  171  A    between atoms: _408  and  _410
REMARK  172  A    between atoms: _410  and  _411
REMARK  173  A    between atoms: _413  and  _415
REMARK  174  A    between atoms: _415  and  _416
REMARK  175  A    between atoms: _415  and  _418
REMARK  176  A    between atoms: _418  and  _419
REMARK  177  A    between atoms: _422  and  _424
REMARK  178  A    between atoms: _424  and  _425
REMARK  179  A    between atoms: _424  and  _427
REMARK  180  A    between atoms: _427  and  _428
REMARK  181  A    between atoms: _428  and  _429
REMARK  182  A    between atoms: _431  and  _433
REMARK  183  A    between atoms: _433  and  _434
REMARK  184  A    between atoms: _436  and  _438
REMARK  185  A    between atoms: _438  and  _439
REMARK  186  A    between atoms: _438  and  _441
REMARK  187  A    between atoms: _441  and  _442
REMARK  188  A    between atoms: _446  and  _447
REMARK  189  A    between atoms: _452  and  _454
REMARK  190  A    between atoms: _454  and  _455
REMARK  191  A    between atoms: _454  and  _457
REMARK  192  A    between atoms: _457  and  _458
REMARK  193  A    between atoms: _463  and  _465
REMARK  194  A    between atoms: _465  and  _466
REMARK  195  A    between atoms: _465  and  _468
REMARK  196  A    between atoms: _468  and  _469
REMARK  197  A    between atoms: _474  and  _475
REMARK  198  A    between atoms: _477  and  _479
REMARK  199  A    between atoms: _479  and  _480
REMARK  200  A    between atoms: _479  and  _482
REMARK  201  A    between atoms: _484  and  _486
REMARK  202  A    between atoms: _486  and  _487
REMARK  203  A    between atoms: _486  and  _489
REMARK  204  A    between atoms: _489  and  _490
REMARK  205  A    between atoms: _490  and  _491
REMARK  206  A    between atoms: _491  and  _492
REMARK  207  A    between atoms: _492  and  _493
REMARK  208  A    between atoms: _497  and  _499
REMARK  209  A    between atoms: _499  and  _500
REMARK  210  A    between atoms: _499  and  _502
REMARK  211  A    between atoms: _502  and  _503
REMARK  212  A    between atoms: _503  and  _504
REMARK  213  A    between atoms: _507  and  _509
REMARK  214  A    between atoms: _509  and  _510
REMARK  215  A    between atoms: _509  and  _512
REMARK  216  A    between atoms: _514  and  _516
REMARK  217  A    between atoms: _516  and  _517
REMARK  218  A    between atoms: _520  and  _521
REMARK  219  A    between atoms: _526  and  _528
REMARK  220  A    between atoms: _528  and  _529
REMARK  221  A    between atoms: _528  and  _531
REMARK  222  A    between atoms: _534  and  _536
REMARK  223  A    between atoms: _536  and  _537
REMARK  224  A    between atoms: _536  and  _539
REMARK  225  A    between atoms: _539  and  _540
REMARK  226  A    between atoms: _543  and  _545
REMARK  227  A    between atoms: _545  and  _546
REMARK  228  A    between atoms: _545  and  _548
REMARK  229  A    between atoms: _548  and  _549
REMARK  230  A    between atoms: _555  and  _557
REMARK  231  A    between atoms: _557  and  _558
REMARK  232  A    between atoms: _557  and  _560
REMARK  233  A    between atoms: _560  and  _561
REMARK  234  A    between atoms: _561  and  _562
REMARK  235  A    between atoms: _564  and  _566
REMARK  236  A    between atoms: _566  and  _567
REMARK  237  A    between atoms: _566  and  _569
REMARK  238  A    between atoms: _569  and  _570
REMARK  239  A    between atoms: _570  and  _571
REMARK  240  A    between atoms: _574  and  _576
REMARK  241  A    between atoms: _576  and  _577
REMARK  242  A    between atoms: _576  and  _579
REMARK  243  A    between atoms: _579  and  _580
REMARK  244  A    between atoms: _580  and  _581
REMARK  245  A    between atoms: _581  and  _582
REMARK  246  A    between atoms: _582  and  _583
REMARK  247  A    between atoms: _587  and  _589
REMARK  248  A    between atoms: _589  and  _590
REMARK  249  A    between atoms: _589  and  _592
REMARK  250  A    between atoms: _592  and  _593
REMARK  251  A    between atoms: _598  and  _599
REMARK  252  A    between atoms: _601  and  _603
REMARK  253  A    between atoms: _603  and  _604
REMARK  254  A    between atoms: _603  and  _606
REMARK  255  A    between atoms: _606  and  _607
REMARK  256  A    between atoms: _610  and  _612
REMARK  257  A    between atoms: _612  and  _613
REMARK  258  A    between atoms: _612  and  _615
REMARK  259  A    between atoms: _615  and  _616
REMARK  260  A    between atoms: _621  and  _623
REMARK  261  A    between atoms: _623  and  _624
REMARK  262  A    between atoms: _623  and  _626
REMARK  263  A    between atoms: _626  and  _627
REMARK  264  A    between atoms: _629  and  _631
REMARK  265  A    between atoms: _631  and  _632
REMARK  266  A    between atoms: _631  and  _634
REMARK  267  A    between atoms: _634  and  _635
REMARK  268  A    between atoms: _635  and  _636
REMARK  269  A    between atoms: _636  and  _637
REMARK  270  A    between atoms: _637  and  _638
REMARK  271  A    between atoms: _642  and  _644
REMARK  272  A    between atoms: _644  and  _645
REMARK  273  A    between atoms: _644  and  _647
REMARK  274  A    between atoms: _647  and  _648
REMARK  275  A    between atoms: _648  and  _649
REMARK  276  A    between atoms: _654  and  _656
REMARK  277  A    between atoms: _656  and  _657
REMARK  278  A    between atoms: _656  and  _659
REMARK  279  A    between atoms: _662  and  _664
REMARK  280  A    between atoms: _664  and  _665
REMARK  281  A    between atoms: _664  and  _667
REMARK  282  A    between atoms: _667  and  _668
REMARK  283  A    between atoms: _674  and  _676
REMARK  284  A    between atoms: _676  and  _677
REMARK  285  A    between atoms: _680  and  _682
REMARK  286  A    between atoms: _682  and  _683
REMARK  287  A    between atoms: _682  and  _685
REMARK  288  A    between atoms: _685  and  _686
REMARK  289  A    between atoms: _689  and  _691
REMARK  290  A    between atoms: _691  and  _692
REMARK  291  A    between atoms: _691  and  _694
REMARK  292  A    between atoms: _694  and  _695
REMARK  293  A    between atoms: _695  and  _696
REMARK  294  A    between atoms: _696  and  _697
REMARK  295  A    between atoms: _706  and  _708
REMARK  296  A    between atoms: _708  and  _709
REMARK  297  A    between atoms: _708  and  _711
REMARK  298  A    between atoms: _711  and  _712
REMARK  299  A    between atoms: _718  and  _720
REMARK  300  A    between atoms: _720  and  _721
REMARK  301  A    between atoms: _720  and  _723
REMARK  302  A    between atoms: _723  and  _724
REMARK  303  A    between atoms: _727  and  _729
REMARK  304  A    between atoms: _729  and  _730
REMARK  305  A    between atoms: _729  and  _732
REMARK  306  A    between atoms: _732  and  _733
REMARK  307  A    between atoms: _738  and  _739
REMARK  308  A    between atoms: _741  and  _743
REMARK  309  A    between atoms: _743  and  _744
REMARK  310  A    between atoms: _747  and  _749
REMARK  311  A    between atoms: _749  and  _750
REMARK  312  A    between atoms: _749  and  _752
REMARK  313  A    between atoms: _752  and  _753
REMARK  314  A    between atoms: _753  and  _754
REMARK  315  A    between atoms: _756  and  _758
REMARK  316  A    between atoms: _758  and  _759
REMARK  317  A    between atoms: _758  and  _761
REMARK  318  A    between atoms: _761  and  _762
REMARK  319  A    between atoms: _767  and  _769
REMARK  320  A    between atoms: _769  and  _770
REMARK  321  A    between atoms: _769  and  _772
REMARK  322  A    between atoms: _772  and  _773
REMARK  323  A    between atoms: _773  and  _774
REMARK  324  A    between atoms: _774  and  _775
REMARK  325  A    between atoms: _784  and  _786
REMARK  326  A    between atoms: _786  and  _787
REMARK  327  A    between atoms: _786  and  _789
REMARK  328  A    between atoms: _789  and  _790
REMARK  329  A    between atoms: _790  and  _791
REMARK  330  A    between atoms: _794  and  _796
REMARK  331  A    between atoms: _796  and  _797
REMARK  332  A    between atoms: _796  and  _799
REMARK  333  A    between atoms: _802  and  _804
REMARK  334  A    between atoms: _804  and  _805
REMARK  335  A    between atoms: _804  and  _807
REMARK  336  A    between atoms: _807  and  _808
REMARK                            x       y       z     vdW  Elec       q    Type
REMARK                         _______ _______ _______ _____ _____    ______ ____
ROOT
ATOM      1  O   HOH     1      10.496  -4.580   3.242  0.00  0.00    +0.000 OA
ENDROOT
TORSDOF 0
REMARK  Name = ../refined-set-2016/1i5r/1i5r_pocket.pdb
REMARK  336 active torsions:
REMARK  status: ('A' for Active; 'I' for Inactive)
REMARK    1  A    between atoms: _1  and  _3
REMARK    2  A    between atoms: _3  and  _4
REMARK    3  A    between atoms: _3  and  _6
REMARK    4  A    between atoms: _6  and  _7
REMARK    5  A    between atoms: _10  and  _12
REMARK    6  A    between atoms: _12  and  _13
REMARK    7  A    between atoms: _12  and  _15
REMARK    8  A    between atoms: _15  and  _16
REMARK    9  A    between atoms: _19  and  _21
REMARK   10  A    between atoms: _21  and  _22
REMARK   11  A    between atoms: _24  and  _26
REMARK   12  A    between atoms: _26  and  _27
REMARK   13  A    between atoms: _26  and  _29
REMARK   14  A    between atoms: _31  and  _33
REMARK   15  A    between atoms: _33  and  _34
REMARK   16  A    between atoms: _33  and  _36
REMARK   17  A    between atoms: _36  and  _37
REMARK   18  A    between atoms: _39  and  _41
REMARK   19  A    between atoms: _41  and  _42
REMARK   20  A    between atoms: _41  and  _44
REMARK   21  A    between atoms: _44  and  _45
REMARK   22  A    between atoms: _47  and  _49
REMARK   23  A    between atoms: _49  and  _50
REMARK   24  A    between atoms: _52  and  _54
REMARK   25  A    between atoms: _54  and  _55
REMARK   26  A    between atoms: _54  and  _57
REMARK   27  A    between atoms: _57  and  _58
REMARK   28  A    between atoms: _61  and  _63
REMARK   29  A    between atoms: _63  and  _64
REMARK   30  A    between atoms: _66  and  _68
REMARK   31  A    between atoms: _68  and  _69
REMARK   32  A    between atoms: _68  and  _71
REMARK   33  A    between atoms: _71  and  _72
REMARK   34  A    between atoms: _75  and  _77
REMARK   35  A    between atoms: _77  and  _78
REMARK   36  A    between atoms: _77  and  _80
REMARK   37  A    between atoms: _80  and  _81
REMARK   38  A    between atoms: _86  and  _88
REMARK   39  A    between atoms: _88  and  _89
REMARK   40  A    between atoms: _88  and  _91
REMARK   41  A    between atoms: _91  and  _92
REMARK   42  A    between atoms: _95  and  _97
REMARK   43  A    between atoms: _97  and  _98
REMARK   44  A    between atoms: _97  and  _100
REMARK   45  A    between atoms: _100  and  _101
REMARK   46  A    between atoms: _104  and  _106
REMARK   47  A    between atoms: _106  and  _107
REMARK   48  A    between atoms: _106  and  _109
REMARK   49  A    between atoms: _109  and  _110
REMARK   50  A    between atoms: _110  and  _111
REMARK   51  A    between atoms: _111  and  _112
REMARK   52  A    between atoms: _121  and  _123
REMARK   53  A    between atoms: _123  and  _124
REMARK   54  A    between atoms: _123  and  _126
REMARK   55  A    between atoms: _126  and  _127
REMARK   56  A    between atoms: _130  and  _132
REMARK   57  A    between atoms: _132  and  _133
REMARK   58  A    between atoms: _132  and  _135
REMARK   59  A    between atoms: _135  and  _136
REMARK   60  A    between atoms: _139  and  _141
REMARK   61  A    between atoms: _141  and  _142
REMARK   62  A    between atoms: _141  and  _144
REMARK   63  A    between atoms: _144  and  _145
REMARK   64  A    between atoms: _145  and  _146
REMARK   65  A    between atoms: _146  and  _147
REMARK   66  A    between atoms: _156  and  _158
REMARK   67  A    between atoms: _158  and  _159
REMARK   68  A    between atoms: _158  and  _161
REMARK   69  A    between atoms: _161  and  _162
REMARK   70  A    between atoms: _165  and  _167
REMARK   71  A    between atoms: _167  and  _168
REMARK   72  A    between atoms: _167  and  _170
REMARK   73  A    between atoms: _170  and  _171
REMARK   74  A    between atoms: _171  and  _172
REMARK   75  A    between atoms: _177  and  _179
REMARK   76  A    between atoms: _179  and  _180
REMARK   77  A    between atoms: _179  and  _182
REMARK   78  A    between atoms: _182  and  _183
REMARK   79  A    between atoms: _186  and  _188
REMARK   80  A    between atoms: _188  and  _189
REMARK   81  A    between atoms: _188  and  _191
REMARK   82  A    between atoms: _191  and  _192
REMARK   83  A    between atoms: _195  and  _197
REMARK   84  A    between atoms: _197  and  _198
REMARK   85  A    between atoms: _197  and  _200
REMARK   86  A    between atoms: _203  and  _205
REMARK   87  A    between atoms: _205  and  _206
REMARK   88  A    between atoms: _205  and  _208
REMARK   89  A    between atoms: _208  and  _209
REMARK   90  A    between atoms: _209  and  _210
REMARK   91  A    between atoms: _210  and  _211
REMARK   92  A    between atoms: _220  and  _222
REMARK   93  A    between atoms: _222  and  _223
REMARK   94  A    between atoms: _222  and  _225
REMARK   95  A    between atoms: _225  and  _226
REMARK   96  A    between atoms: _229  and  _231
REMARK   97  A    between atoms: _231  and  _232
REMARK   98  A    between atoms: _231  and  _234
REMARK   99  A    between atoms: _234  and  _235
REMARK  100  A    between atoms: _237  and  _239
REMARK  101  A    between atoms: _239  and  _240
REMARK  102  A    between atoms: _239  and  _242
REMARK  103  A    between atoms: _245  and  _247
REMARK  104  A    between atoms: _247  and  _248
REMARK  105  A    between atoms: _247  and  _250
REMARK  106  A    between atoms: _252  and  _254
REMARK  107  A    between atoms: _254  and  _255
REMARK  108  A    between atoms: _254  and  _257
REMARK  109  A    between atoms: _257  and  _258
REMARK  110  A    between atoms: _263  and  _265
REMARK  111  A    between atoms: _265  and  _266
REMARK  112  A    between atoms: _269  and  _271
REMARK  113  A    between atoms: _271  and  _272
REMARK  114  A    between atoms: _274  and  _276
REMARK  115  A    between atoms: _276  and  _277
REMARK  116  A    between atoms: _276  and  _279
REMARK  117  A    between atoms: _279  and  _280
REMARK  118  A    between atoms: _283  and  _285
REMARK  119  A    between atoms: _285  and  _286
REMARK  120  A    between atoms: _288  and  _290
REMARK  121  A    between atoms: _290  and  _291
REMARK  122  A    between atoms: _290  and  _293
REMARK  123  A    between atoms: _293  and  _294
REMARK  124  A    between atoms: _297  and  _299
REMARK  125  A    between atoms: _299  and  _300
REMARK  126  A    between atoms: _299  and  _302
REMARK  127  A    between atoms: _302  and  _303
REMARK  128  A    between atoms: _306  and  _308
REMARK  129  A    between atoms: _308  and  _309
REMARK  130  A    between atoms: _308  and  _311
REMARK  131  A    between atoms: _311  and  _312
REMARK  132  A    between atoms: _314  and  _316
REMARK  133  A    between atoms: _316  and  _317
REMARK  134  A    between atoms: _316  and  _319
REMARK  135  A    between atoms: _319  and  _320
REMARK  136  A    between atoms: _323  and  _325
REMARK  137  A    between atoms: _325  and  _326
REMARK  138  A    between atoms: _325  and  _328
REMARK  139  A    between atoms: _331  and  _333
REMARK  140  A    between atoms: _333  and  _334
REMARK  141  A    between atoms: _333  and  _336
REMARK  142  A    between atoms: _336  and  _337
REMARK  143  A    between atoms: _342  and  _344
REMARK  144  A    between atoms: _344  and  _345
REMARK  145  A    between atoms: _347  and  _349
REMARK  146  A    between atoms: _349  and  _350
REMARK  147  A    between atoms: _349  and  _352
REMARK  148  A    between atoms: _352  and  _353
REMARK  149  A    between atoms: _353  and  _354
REMARK  150  A    between atoms: _354  and  _355
REMARK  151  A    between atoms: _364  and  _366
REMARK  152  A    between atoms: _366  and  _367
REMARK  153  A    between atoms: _366  and  _369
REMARK  154  A    between atoms: _369  and  _370
REMARK  155  A    between atoms: _370  and  _371
REMARK  156  A    between atoms: _373  and  _375
REMARK  157  A    between atoms: _375  and  _376
REMARK  158  A    between atoms: _375  and  _378
REMARK  159  A    between atoms: _378  and  _379
REMARK  160  A    between atoms: _382  and  _384
REMARK  161  A    between atoms: _384  and  _385
REMARK  162  A    between atoms: _387  and  _389
REMARK  163  A    between atoms: _389  and  _390
REMARK  164  A    between atoms: _389  and  _392
REMARK  165  A    between atoms: _392  and  _393
REMARK  166  A    between atoms: _395  and  _397
REMARK  167  A    between atoms: _397  and  _398
REMARK  168  A    between atoms: _397  and  _400
REMARK  169  A    between atoms: _403  and  _405
REMARK  170  A    between atoms: _405  and  _406
REMARK  171  A    between atoms: _408  and  _410
REMARK  172  A    between atoms: _410  and  _411
REMARK  173  A    between atoms: _413  and  _415
REMARK  174  A    between atoms: _415  and  _416
REMARK  175  A    between atoms: _415  and  _418
REMARK  176  A    between atoms: _418  and  _419
REMARK  177  A    between atoms: _422  and  _424
REMARK  178  A    between atoms: _424  and  _425
REMARK  179  A    between atoms: _424  and  _427
REMARK  180  A    between atoms: _427  and  _428
REMARK  181  A    between atoms: _428  and  _429
REMARK  182  A    between atoms: _431  and  _433
REMARK  183  A    between atoms: _433  and  _434
REMARK  184  A    between atoms: _436  and  _438
REMARK  185  A    between atoms: _438  and  _439
REMARK  186  A    between atoms: _438  and  _441
REMARK  187  A    between atoms: _441  and  _442
REMARK  188  A    between atoms: _446  and  _447
REMARK  189  A    between atoms: _452  and  _454
REMARK  190  A    between atoms: _454  and  _455
REMARK  191  A    between atoms: _454  and  _457
REMARK  192  A    between atoms: _457  and  _458
REMARK  193  A    between atoms: _463  and  _465
REMARK  194  A    between atoms: _465  and  _466
REMARK  195  A    between atoms: _465  and  _468
REMARK  196  A    between atoms: _468  and  _469
REMARK  197  A    between atoms: _474  and  _475
REMARK  198  A    between atoms: _477  and  _479
REMARK  199  A    between atoms: _479  and  _480
REMARK  200  A    between atoms: _479  and  _482
REMARK  201  A    between atoms: _484  and  _486
REMARK  202  A    between atoms: _486  and  _487
REMARK  203  A    between atoms: _486  and  _489
REMARK  204  A    between atoms: _489  and  _490
REMARK  205  A    between atoms: _490  and  _491
REMARK  206  A    between atoms: _491  and  _492
REMARK  207  A    between atoms: _492  and  _493
REMARK  208  A    between atoms: _497  and  _499
REMARK  209  A    between atoms: _499  and  _500
REMARK  210  A    between atoms: _499  and  _502
REMARK  211  A    between atoms: _502  and  _503
REMARK  212  A    between atoms: _503  and  _504
REMARK  213  A    between atoms: _507  and  _509
REMARK  214  A    between atoms: _509  and  _510
REMARK  215  A    between atoms: _509  and  _512
REMARK  216  A    between atoms: _514  and  _516
REMARK  217  A    between atoms: _516  and  _517
REMARK  218  A    between atoms: _520  and  _521
REMARK  219  A    between atoms: _526  and  _528
REMARK  220  A    between atoms: _528  and  _529
REMARK  221  A    between atoms: _528  and  _531
REMARK  222  A    between atoms: _534  and  _536
REMARK  223  A    between atoms: _536  and  _537
REMARK  224  A    between atoms: _536  and  _539
REMARK  225  A    between atoms: _539  and  _540
REMARK  226  A    between atoms: _543  and  _545
REMARK  227  A    between atoms: _545  and  _546
REMARK  228  A    between atoms: _545  and  _548
REMARK  229  A    between atoms: _548  and  _549
REMARK  230  A    between atoms: _555  and  _557
REMARK  231  A    between atoms: _557  and  _558
REMARK  232  A    between atoms: _557  and  _560
REMARK  233  A    between atoms: _560  and  _561
REMARK  234  A    between atoms: _561  and  _562
REMARK  235  A    between atoms: _564  and  _566
REMARK  236  A    between atoms: _566  and  _567
REMARK  237  A    between atoms: _566  and  _569
REMARK  238  A    between atoms: _569  and  _570
REMARK  239  A    between atoms: _570  and  _571
REMARK  240  A    between atoms: _574  and  _576
REMARK  241  A    between atoms: _576  and  _577
REMARK  242  A    between atoms: _576  and  _579
REMARK  243  A    between atoms: _579  and  _580
REMARK  244  A    between atoms: _580  and  _581
REMARK  245  A    between atoms: _581  and  _582
REMARK  246  A    between atoms: _582  and  _583
REMARK  247  A    between atoms: _587  and  _589
REMARK  248  A    between atoms: _589  and  _590
REMARK  249  A    between atoms: _589  and  _592
REMARK  250  A    between atoms: _592  and  _593
REMARK  251  A    between atoms: _598  and  _599
REMARK  252  A    between atoms: _601  and  _603
REMARK  253  A    between atoms: _603  and  _604
REMARK  254  A    between atoms: _603  and  _606
REMARK  255  A    between atoms: _606  and  _607
REMARK  256  A    between atoms: _610  and  _612
REMARK  257  A    between atoms: _612  and  _613
REMARK  258  A    between atoms: _612  and  _615
REMARK  259  A    between atoms: _615  and  _616
REMARK  260  A    between atoms: _621  and  _623
REMARK  261  A    between atoms: _623  and  _624
REMARK  262  A    between atoms: _623  and  _626
REMARK  263  A    between atoms: _626  and  _627
REMARK  264  A    between atoms: _629  and  _631
REMARK  265  A    between atoms: _631  and  _632
REMARK  266  A    between atoms: _631  and  _634
REMARK  267  A    between atoms: _634  and  _635
REMARK  268  A    between atoms: _635  and  _636
REMARK  269  A    between atoms: _636  and  _637
REMARK  270  A    between atoms: _637  and  _638
REMARK  271  A    between atoms: _642  and  _644
REMARK  272  A    between atoms: _644  and  _645
REMARK  273  A    between atoms: _644  and  _647
REMARK  274  A    between atoms: _647  and  _648
REMARK  275  A    between atoms: _648  and  _649
REMARK  276  A    between atoms: _654  and  _656
REMARK  277  A    between atoms: _656  and  _657
REMARK  278  A    between atoms: _656  and  _659
REMARK  279  A    between atoms: _662  and  _664
REMARK  280  A    between atoms: _664  and  _665
REMARK  281  A    between atoms: _664  and  _667
REMARK  282  A    between atoms: _667  and  _668
REMARK  283  A    between atoms: _674  and  _676
REMARK  284  A    between atoms: _676  and  _677
REMARK  285  A    between atoms: _680  and  _682
REMARK  286  A    between atoms: _682  and  _683
REMARK  287  A    between atoms: _682  and  _685
REMARK  288  A    between atoms: _685  and  _686
REMARK  289  A    between atoms: _689  and  _691
REMARK  290  A    between atoms: _691  and  _692
REMARK  291  A    between atoms: _691  and  _694
REMARK  292  A    between atoms: _694  and  _695
REMARK  293  A    between atoms: _695  and  _696
REMARK  294  A    between atoms: _696  and  _697
REMARK  295  A    between atoms: _706  and  _708
REMARK  296  A    between atoms: _708  and  _709
REMARK  297  A    between atoms: _708  and  _711
REMARK  298  A    between atoms: _711  and  _712
REMARK  299  A    between atoms: _718  and  _720
REMARK  300  A    between atoms: _720  and  _721
REMARK  301  A    between atoms: _720  and  _723
REMARK  302  A    between atoms: _723  and  _724
REMARK  303  A    between atoms: _727  and  _729
REMARK  304  A    between atoms: _729  and  _730
REMARK  305  A    between atoms: _729  and  _732
REMARK  306  A    between atoms: _732  and  _733
REMARK  307  A    between atoms: _738  and  _739
REMARK  308  A    between atoms: _741  and  _743
REMARK  309  A    between atoms: _743  and  _744
REMARK  310  A    between atoms: _747  and  _749
REMARK  311  A    between atoms: _749  and  _750
REMARK  312  A    between atoms: _749  and  _752
REMARK  313  A    between atoms: _752  and  _753
REMARK  314  A    between atoms: _753  and  _754
REMARK  315  A    between atoms: _756  and  _758
REMARK  316  A    between atoms: _758  and  _759
REMARK  317  A    between atoms: _758  and  _761
REMARK  318  A    between atoms: _761  and  _762
REMARK  319  A    between atoms: _767  and  _769
REMARK  320  A    between atoms: _769  and  _770
REMARK  321  A    between atoms: _769  and  _772
REMARK  322  A    between atoms: _772  and  _773
REMARK  323  A    between atoms: _773  and  _774
REMARK  324  A    between atoms: _774  and  _775
REMARK  325  A    between atoms: _784  and  _786
REMARK  326  A    between atoms: _786  and  _787
REMARK  327  A    between atoms: _786  and  _789
REMARK  328  A    between atoms: _789  and  _790
REMARK  329  A    between atoms: _790  and  _791
REMARK  330  A    between atoms: _794  and  _796
REMARK  331  A    between atoms: _796  and  _797
REMARK  332  A    between atoms: _796  and  _799
REMARK  333  A    between atoms: _802  and  _804
REMARK  334  A    between atoms: _804  and  _805
REMARK  335  A    between atoms: _804  and  _807
REMARK  336  A    between atoms: _807  and  _808
REMARK                            x       y       z     vdW  Elec       q    Type
REMARK                         _______ _______ _______ _____ _____    ______ ____
ROOT
ATOM      1  O   HOH     1       7.603 -12.806  -3.567  0.00  0.00    +0.000 OA
ENDROOT
TORSDOF 0
REMARK  Name = ../refined-set-2016/1i5r/1i5r_pocket.pdb
REMARK  336 active torsions:
REMARK  status: ('A' for Active; 'I' for Inactive)
REMARK    1  A    between atoms: _1  and  _3
REMARK    2  A    between atoms: _3  and  _4
REMARK    3  A    between atoms: _3  and  _6
REMARK    4  A    between atoms: _6  and  _7
REMARK    5  A    between atoms: _10  and  _12
REMARK    6  A    between atoms: _12  and  _13
REMARK    7  A    between atoms: _12  and  _15
REMARK    8  A    between atoms: _15  and  _16
REMARK    9  A    between atoms: _19  and  _21
REMARK   10  A    between atoms: _21  and  _22
REMARK   11  A    between atoms: _24  and  _26
REMARK   12  A    between atoms: _26  and  _27
REMARK   13  A    between atoms: _26  and  _29
REMARK   14  A    between atoms: _31  and  _33
REMARK   15  A    between atoms: _33  and  _34
REMARK   16  A    between atoms: _33  and  _36
REMARK   17  A    between atoms: _36  and  _37
REMARK   18  A    between atoms: _39  and  _41
REMARK   19  A    between atoms: _41  and  _42
REMARK   20  A    between atoms: _41  and  _44
REMARK   21  A    between atoms: _44  and  _45
REMARK   22  A    between atoms: _47  and  _49
REMARK   23  A    between atoms: _49  and  _50
REMARK   24  A    between atoms: _52  and  _54
REMARK   25  A    between atoms: _54  and  _55
REMARK   26  A    between atoms: _54  and  _57
REMARK   27  A    between atoms: _57  and  _58
REMARK   28  A    between atoms: _61  and  _63
REMARK   29  A    between atoms: _63  and  _64
REMARK   30  A    between atoms: _66  and  _68
REMARK   31  A    between atoms: _68  and  _69
REMARK   32  A    between atoms: _68  and  _71
REMARK   33  A    between atoms: _71  and  _72
REMARK   34  A    between atoms: _75  and  _77
REMARK   35  A    between atoms: _77  and  _78
REMARK   36  A    between atoms: _77  and  _80
REMARK   37  A    between atoms: _80  and  _81
REMARK   38  A    between atoms: _86  and  _88
REMARK   39  A    between atoms: _88  and  _89
REMARK   40  A    between atoms: _88  and  _91
REMARK   41  A    between atoms: _91  and  _92
REMARK   42  A    between atoms: _95  and  _97
REMARK   43  A    between atoms: _97  and  _98
REMARK   44  A    between atoms: _97  and  _100
REMARK   45  A    between atoms: _100  and  _101
REMARK   46  A    between atoms: _104  and  _106
REMARK   47  A    between atoms: _106  and  _107
REMARK   48  A    between atoms: _106  and  _109
REMARK   49  A    between atoms: _109  and  _110
REMARK   50  A    between atoms: _110  and  _111
REMARK   51  A    between atoms: _111  and  _112
REMARK   52  A    between atoms: _121  and  _123
REMARK   53  A    between atoms: _123  and  _124
REMARK   54  A    between atoms: _123  and  _126
REMARK   55  A    between atoms: _126  and  _127
REMARK   56  A    between atoms: _130  and  _132
REMARK   57  A    between atoms: _132  and  _133
REMARK   58  A    between atoms: _132  and  _135
REMARK   59  A    between atoms: _135  and  _136
REMARK   60  A    between atoms: _139  and  _141
REMARK   61  A    between atoms: _141  and  _142
REMARK   62  A    between atoms: _141  and  _144
REMARK   63  A    between atoms: _144  and  _145
REMARK   64  A    between atoms: _145  and  _146
REMARK   65  A    between atoms: _146  and  _147
REMARK   66  A    between atoms: _156  and  _158
REMARK   67  A    between atoms: _158  and  _159
REMARK   68  A    between atoms: _158  and  _161
REMARK   69  A    between atoms: _161  and  _162
REMARK   70  A    between atoms: _165  and  _167
REMARK   71  A    between atoms: _167  and  _168
REMARK   72  A    between atoms: _167  and  _170
REMARK   73  A    between atoms: _170  and  _171
REMARK   74  A    between atoms: _171  and  _172
REMARK   75  A    between atoms: _177  and  _179
REMARK   76  A    between atoms: _179  and  _180
REMARK   77  A    between atoms: _179  and  _182
REMARK   78  A    between atoms: _182  and  _183
REMARK   79  A    between atoms: _186  and  _188
REMARK   80  A    between atoms: _188  and  _189
REMARK   81  A    between atoms: _188  and  _191
REMARK   82  A    between atoms: _191  and  _192
REMARK   83  A    between atoms: _195  and  _197
REMARK   84  A    between atoms: _197  and  _198
REMARK   85  A    between atoms: _197  and  _200
REMARK   86  A    between atoms: _203  and  _205
REMARK   87  A    between atoms: _205  and  _206
REMARK   88  A    between atoms: _205  and  _208
REMARK   89  A    between atoms: _208  and  _209
REMARK   90  A    between atoms: _209  and  _210
REMARK   91  A    between atoms: _210  and  _211
REMARK   92  A    between atoms: _220  and  _222
REMARK   93  A    between atoms: _222  and  _223
REMARK   94  A    between atoms: _222  and  _225
REMARK   95  A    between atoms: _225  and  _226
REMARK   96  A    between atoms: _229  and  _231
REMARK   97  A    between atoms: _231  and  _232
REMARK   98  A    between atoms: _231  and  _234
REMARK   99  A    between atoms: _234  and  _235
REMARK  100  A    between atoms: _237  and  _239
REMARK  101  A    between atoms: _239  and  _240
REMARK  102  A    between atoms: _239  and  _242
REMARK  103  A    between atoms: _245  and  _247
REMARK  104  A    between atoms: _247  and  _248
REMARK  105  A    between atoms: _247  and  _250
REMARK  106  A    between atoms: _252  and  _254
REMARK  107  A    between atoms: _254  and  _255
REMARK  108  A    between atoms: _254  and  _257
REMARK  109  A    between atoms: _257  and  _258
REMARK  110  A    between atoms: _263  and  _265
REMARK  111  A    between atoms: _265  and  _266
REMARK  112  A    between atoms: _269  and  _271
REMARK  113  A    between atoms: _271  and  _272
REMARK  114  A    between atoms: _274  and  _276
REMARK  115  A    between atoms: _276  and  _277
REMARK  116  A    between atoms: _276  and  _279
REMARK  117  A    between atoms: _279  and  _280
REMARK  118  A    between atoms: _283  and  _285
REMARK  119  A    between atoms: _285  and  _286
REMARK  120  A    between atoms: _288  and  _290
REMARK  121  A    between atoms: _290  and  _291
REMARK  122  A    between atoms: _290  and  _293
REMARK  123  A    between atoms: _293  and  _294
REMARK  124  A    between atoms: _297  and  _299
REMARK  125  A    between atoms: _299  and  _300
REMARK  126  A    between atoms: _299  and  _302
REMARK  127  A    between atoms: _302  and  _303
REMARK  128  A    between atoms: _306  and  _308
REMARK  129  A    between atoms: _308  and  _309
REMARK  130  A    between atoms: _308  and  _311
REMARK  131  A    between atoms: _311  and  _312
REMARK  132  A    between atoms: _314  and  _316
REMARK  133  A    between atoms: _316  and  _317
REMARK  134  A    between atoms: _316  and  _319
REMARK  135  A    between atoms: _319  and  _320
REMARK  136  A    between atoms: _323  and  _325
REMARK  137  A    between atoms: _325  and  _326
REMARK  138  A    between atoms: _325  and  _328
REMARK  139  A    between atoms: _331  and  _333
REMARK  140  A    between atoms: _333  and  _334
REMARK  141  A    between atoms: _333  and  _336
REMARK  142  A    between atoms: _336  and  _337
REMARK  143  A    between atoms: _342  and  _344
REMARK  144  A    between atoms: _344  and  _345
REMARK  145  A    between atoms: _347  and  _349
REMARK  146  A    between atoms: _349  and  _350
REMARK  147  A    between atoms: _349  and  _352
REMARK  148  A    between atoms: _352  and  _353
REMARK  149  A    between atoms: _353  and  _354
REMARK  150  A    between atoms: _354  and  _355
REMARK  151  A    between atoms: _364  and  _366
REMARK  152  A    between atoms: _366  and  _367
REMARK  153  A    between atoms: _366  and  _369
REMARK  154  A    between atoms: _369  and  _370
REMARK  155  A    between atoms: _370  and  _371
REMARK  156  A    between atoms: _373  and  _375
REMARK  157  A    between atoms: _375  and  _376
REMARK  158  A    between atoms: _375  and  _378
REMARK  159  A    between atoms: _378  and  _379
REMARK  160  A    between atoms: _382  and  _384
REMARK  161  A    between atoms: _384  and  _385
REMARK  162  A    between atoms: _387  and  _389
REMARK  163  A    between atoms: _389  and  _390
REMARK  164  A    between atoms: _389  and  _392
REMARK  165  A    between atoms: _392  and  _393
REMARK  166  A    between atoms: _395  and  _397
REMARK  167  A    between atoms: _397  and  _398
REMARK  168  A    between atoms: _397  and  _400
REMARK  169  A    between atoms: _403  and  _405
REMARK  170  A    between atoms: _405  and  _406
REMARK  171  A    between atoms: _408  and  _410
REMARK  172  A    between atoms: _410  and  _411
REMARK  173  A    between atoms: _413  and  _415
REMARK  174  A    between atoms: _415  and  _416
REMARK  175  A    between atoms: _415  and  _418
REMARK  176  A    between atoms: _418  and  _419
REMARK  177  A    between atoms: _422  and  _424
REMARK  178  A    between atoms: _424  and  _425
REMARK  179  A    between atoms: _424  and  _427
REMARK  180  A    between atoms: _427  and  _428
REMARK  181  A    between atoms: _428  and  _429
REMARK  182  A    between atoms: _431  and  _433
REMARK  183  A    between atoms: _433  and  _434
REMARK  184  A    between atoms: _436  and  _438
REMARK  185  A    between atoms: _438  and  _439
REMARK  186  A    between atoms: _438  and  _441
REMARK  187  A    between atoms: _441  and  _442
REMARK  188  A    between atoms: _446  and  _447
REMARK  189  A    between atoms: _452  and  _454
REMARK  190  A    between atoms: _454  and  _455
REMARK  191  A    between atoms: _454  and  _457
REMARK  192  A    between atoms: _457  and  _458
REMARK  193  A    between atoms: _463  and  _465
REMARK  194  A    between atoms: _465  and  _466
REMARK  195  A    between atoms: _465  and  _468
REMARK  196  A    between atoms: _468  and  _469
REMARK  197  A    between atoms: _474  and  _475
REMARK  198  A    between atoms: _477  and  _479
REMARK  199  A    between atoms: _479  and  _480
REMARK  200  A    between atoms: _479  and  _482
REMARK  201  A    between atoms: _484  and  _486
REMARK  202  A    between atoms: _486  and  _487
REMARK  203  A    between atoms: _486  and  _489
REMARK  204  A    between atoms: _489  and  _490
REMARK  205  A    between atoms: _490  and  _491
REMARK  206  A    between atoms: _491  and  _492
REMARK  207  A    between atoms: _492  and  _493
REMARK  208  A    between atoms: _497  and  _499
REMARK  209  A    between atoms: _499  and  _500
REMARK  210  A    between atoms: _499  and  _502
REMARK  211  A    between atoms: _502  and  _503
REMARK  212  A    between atoms: _503  and  _504
REMARK  213  A    between atoms: _507  and  _509
REMARK  214  A    between atoms: _509  and  _510
REMARK  215  A    between atoms: _509  and  _512
REMARK  216  A    between atoms: _514  and  _516
REMARK  217  A    between atoms: _516  and  _517
REMARK  218  A    between atoms: _520  and  _521
REMARK  219  A    between atoms: _526  and  _528
REMARK  220  A    between atoms: _528  and  _529
REMARK  221  A    between atoms: _528  and  _531
REMARK  222  A    between atoms: _534  and  _536
REMARK  223  A    between atoms: _536  and  _537
REMARK  224  A    between atoms: _536  and  _539
REMARK  225  A    between atoms: _539  and  _540
REMARK  226  A    between atoms: _543  and  _545
REMARK  227  A    between atoms: _545  and  _546
REMARK  228  A    between atoms: _545  and  _548
REMARK  229  A    between atoms: _548  and  _549
REMARK  230  A    between atoms: _555  and  _557
REMARK  231  A    between atoms: _557  and  _558
REMARK  232  A    between atoms: _557  and  _560
REMARK  233  A    between atoms: _560  and  _561
REMARK  234  A    between atoms: _561  and  _562
REMARK  235  A    between atoms: _564  and  _566
REMARK  236  A    between atoms: _566  and  _567
REMARK  237  A    between atoms: _566  and  _569
REMARK  238  A    between atoms: _569  and  _570
REMARK  239  A    between atoms: _570  and  _571
REMARK  240  A    between atoms: _574  and  _576
REMARK  241  A    between atoms: _576  and  _577
REMARK  242  A    between atoms: _576  and  _579
REMARK  243  A    between atoms: _579  and  _580
REMARK  244  A    between atoms: _580  and  _581
REMARK  245  A    between atoms: _581  and  _582
REMARK  246  A    between atoms: _582  and  _583
REMARK  247  A    between atoms: _587  and  _589
REMARK  248  A    between atoms: _589  and  _590
REMARK  249  A    between atoms: _589  and  _592
REMARK  250  A    between atoms: _592  and  _593
REMARK  251  A    between atoms: _598  and  _599
REMARK  252  A    between atoms: _601  and  _603
REMARK  253  A    between atoms: _603  and  _604
REMARK  254  A    between atoms: _603  and  _606
REMARK  255  A    between atoms: _606  and  _607
REMARK  256  A    between atoms: _610  and  _612
REMARK  257  A    between atoms: _612  and  _613
REMARK  258  A    between atoms: _612  and  _615
REMARK  259  A    between atoms: _615  and  _616
REMARK  260  A    between atoms: _621  and  _623
REMARK  261  A    between atoms: _623  and  _624
REMARK  262  A    between atoms: _623  and  _626
REMARK  263  A    between atoms: _626  and  _627
REMARK  264  A    between atoms: _629  and  _631
REMARK  265  A    between atoms: _631  and  _632
REMARK  266  A    between atoms: _631  and  _634
REMARK  267  A    between atoms: _634  and  _635
REMARK  268  A    between atoms: _635  and  _636
REMARK  269  A    between atoms: _636  and  _637
REMARK  270  A    between atoms: _637  and  _638
REMARK  271  A    between atoms: _642  and  _644
REMARK  272  A    between atoms: _644  and  _645
REMARK  273  A    between atoms: _644  and  _647
REMARK  274  A    between atoms: _647  and  _648
REMARK  275  A    between atoms: _648  and  _649
REMARK  276  A    between atoms: _654  and  _656
REMARK  277  A    between atoms: _656  and  _657
REMARK  278  A    between atoms: _656  and  _659
REMARK  279  A    between atoms: _662  and  _664
REMARK  280  A    between atoms: _664  and  _665
REMARK  281  A    between atoms: _664  and  _667
REMARK  282  A    between atoms: _667  and  _668
REMARK  283  A    between atoms: _674  and  _676
REMARK  284  A    between atoms: _676  and  _677
REMARK  285  A    between atoms: _680  and  _682
REMARK  286  A    between atoms: _682  and  _683
REMARK  287  A    between atoms: _682  and  _685
REMARK  288  A    between atoms: _685  and  _686
REMARK  289  A    between atoms: _689  and  _691
REMARK  290  A    between atoms: _691  and  _692
REMARK  291  A    between atoms: _691  and  _694
REMARK  292  A    between atoms: _694  and  _695
REMARK  293  A    between atoms: _695  and  _696
REMARK  294  A    between atoms: _696  and  _697
REMARK  295  A    between atoms: _706  and  _708
REMARK  296  A    between atoms: _708  and  _709
REMARK  297  A    between atoms: _708  and  _711
REMARK  298  A    between atoms: _711  and  _712
REMARK  299  A    between atoms: _718  and  _720
REMARK  300  A    between atoms: _720  and  _721
REMARK  301  A    between atoms: _720  and  _723
REMARK  302  A    between atoms: _723  and  _724
REMARK  303  A    between atoms: _727  and  _729
REMARK  304  A    between atoms: _729  and  _730
REMARK  305  A    between atoms: _729  and  _732
REMARK  306  A    between atoms: _732  and  _733
REMARK  307  A    between atoms: _738  and  _739
REMARK  308  A    between atoms: _741  and  _743
REMARK  309  A    between atoms: _743  and  _744
REMARK  310  A    between atoms: _747  and  _749
REMARK  311  A    between atoms: _749  and  _750
REMARK  312  A    between atoms: _749  and  _752
REMARK  313  A    between atoms: _752  and  _753
REMARK  314  A    between atoms: _753  and  _754
REMARK  315  A    between atoms: _756  and  _758
REMARK  316  A    between atoms: _758  and  _759
REMARK  317  A    between atoms: _758  and  _761
REMARK  318  A    between atoms: _761  and  _762
REMARK  319  A    between atoms: _767  and  _769
REMARK  320  A    between atoms: _769  and  _770
REMARK  321  A    between atoms: _769  and  _772
REMARK  322  A    between atoms: _772  and  _773
REMARK  323  A    between atoms: _773  and  _774
REMARK  324  A    between atoms: _774  and  _775
REMARK  325  A    between atoms: _784  and  _786
REMARK  326  A    between atoms: _786  and  _787
REMARK  327  A    between atoms: _786  and  _789
REMARK  328  A    between atoms: _789  and  _790
REMARK  329  A    between atoms: _790  and  _791
REMARK  330  A    between atoms: _794  and  _796
REMARK  331  A    between atoms: _796  and  _797
REMARK  332  A    between atoms: _796  and  _799
REMARK  333  A    between atoms: _802  and  _804
REMARK  334  A    between atoms: _804  and  _805
REMARK  335  A    between atoms: _804  and  _807
REMARK  336  A    between atoms: _807  and  _808
REMARK                            x       y       z     vdW  Elec       q    Type
REMARK                         _______ _______ _______ _____ _____    ______ ____
ROOT
ATOM      1  O   HOH     1      16.171  -9.668  -3.924  0.00  0.00    +0.000 OA
ENDROOT
TORSDOF 0
REMARK  Name = ../refined-set-2016/1i5r/1i5r_pocket.pdb
REMARK  336 active torsions:
REMARK  status: ('A' for Active; 'I' for Inactive)
REMARK    1  A    between atoms: _1  and  _3
REMARK    2  A    between atoms: _3  and  _4
REMARK    3  A    between atoms: _3  and  _6
REMARK    4  A    between atoms: _6  and  _7
REMARK    5  A    between atoms: _10  and  _12
REMARK    6  A    between atoms: _12  and  _13
REMARK    7  A    between atoms: _12  and  _15
REMARK    8  A    between atoms: _15  and  _16
REMARK    9  A    between atoms: _19  and  _21
REMARK   10  A    between atoms: _21  and  _22
REMARK   11  A    between atoms: _24  and  _26
REMARK   12  A    between atoms: _26  and  _27
REMARK   13  A    between atoms: _26  and  _29
REMARK   14  A    between atoms: _31  and  _33
REMARK   15  A    between atoms: _33  and  _34
REMARK   16  A    between atoms: _33  and  _36
REMARK   17  A    between atoms: _36  and  _37
REMARK   18  A    between atoms: _39  and  _41
REMARK   19  A    between atoms: _41  and  _42
REMARK   20  A    between atoms: _41  and  _44
REMARK   21  A    between atoms: _44  and  _45
REMARK   22  A    between atoms: _47  and  _49
REMARK   23  A    between atoms: _49  and  _50
REMARK   24  A    between atoms: _52  and  _54
REMARK   25  A    between atoms: _54  and  _55
REMARK   26  A    between atoms: _54  and  _57
REMARK   27  A    between atoms: _57  and  _58
REMARK   28  A    between atoms: _61  and  _63
REMARK   29  A    between atoms: _63  and  _64
REMARK   30  A    between atoms: _66  and  _68
REMARK   31  A    between atoms: _68  and  _69
REMARK   32  A    between atoms: _68  and  _71
REMARK   33  A    between atoms: _71  and  _72
REMARK   34  A    between atoms: _75  and  _77
REMARK   35  A    between atoms: _77  and  _78
REMARK   36  A    between atoms: _77  and  _80
REMARK   37  A    between atoms: _80  and  _81
REMARK   38  A    between atoms: _86  and  _88
REMARK   39  A    between atoms: _88  and  _89
REMARK   40  A    between atoms: _88  and  _91
REMARK   41  A    between atoms: _91  and  _92
REMARK   42  A    between atoms: _95  and  _97
REMARK   43  A    between atoms: _97  and  _98
REMARK   44  A    between atoms: _97  and  _100
REMARK   45  A    between atoms: _100  and  _101
REMARK   46  A    between atoms: _104  and  _106
REMARK   47  A    between atoms: _106  and  _107
REMARK   48  A    between atoms: _106  and  _109
REMARK   49  A    between atoms: _109  and  _110
REMARK   50  A    between atoms: _110  and  _111
REMARK   51  A    between atoms: _111  and  _112
REMARK   52  A    between atoms: _121  and  _123
REMARK   53  A    between atoms: _123  and  _124
REMARK   54  A    between atoms: _123  and  _126
REMARK   55  A    between atoms: _126  and  _127
REMARK   56  A    between atoms: _130  and  _132
REMARK   57  A    between atoms: _132  and  _133
REMARK   58  A    between atoms: _132  and  _135
REMARK   59  A    between atoms: _135  and  _136
REMARK   60  A    between atoms: _139  and  _141
REMARK   61  A    between atoms: _141  and  _142
REMARK   62  A    between atoms: _141  and  _144
REMARK   63  A    between atoms: _144  and  _145
REMARK   64  A    between atoms: _145  and  _146
REMARK   65  A    between atoms: _146  and  _147
REMARK   66  A    between atoms: _156  and  _158
REMARK   67  A    between atoms: _158  and  _159
REMARK   68  A    between atoms: _158  and  _161
REMARK   69  A    between atoms: _161  and  _162
REMARK   70  A    between atoms: _165  and  _167
REMARK   71  A    between atoms: _167  and  _168
REMARK   72  A    between atoms: _167  and  _170
REMARK   73  A    between atoms: _170  and  _171
REMARK   74  A    between atoms: _171  and  _172
REMARK   75  A    between atoms: _177  and  _179
REMARK   76  A    between atoms: _179  and  _180
REMARK   77  A    between atoms: _179  and  _182
REMARK   78  A    between atoms: _182  and  _183
REMARK   79  A    between atoms: _186  and  _188
REMARK   80  A    between atoms: _188  and  _189
REMARK   81  A    between atoms: _188  and  _191
REMARK   82  A    between atoms: _191  and  _192
REMARK   83  A    between atoms: _195  and  _197
REMARK   84  A    between atoms: _197  and  _198
REMARK   85  A    between atoms: _197  and  _200
REMARK   86  A    between atoms: _203  and  _205
REMARK   87  A    between atoms: _205  and  _206
REMARK   88  A    between atoms: _205  and  _208
REMARK   89  A    between atoms: _208  and  _209
REMARK   90  A    between atoms: _209  and  _210
REMARK   91  A    between atoms: _210  and  _211
REMARK   92  A    between atoms: _220  and  _222
REMARK   93  A    between atoms: _222  and  _223
REMARK   94  A    between atoms: _222  and  _225
REMARK   95  A    between atoms: _225  and  _226
REMARK   96  A    between atoms: _229  and  _231
REMARK   97  A    between atoms: _231  and  _232
REMARK   98  A    between atoms: _231  and  _234
REMARK   99  A    between atoms: _234  and  _235
REMARK  100  A    between atoms: _237  and  _239
REMARK  101  A    between atoms: _239  and  _240
REMARK  102  A    between atoms: _239  and  _242
REMARK  103  A    between atoms: _245  and  _247
REMARK  104  A    between atoms: _247  and  _248
REMARK  105  A    between atoms: _247  and  _250
REMARK  106  A    between atoms: _252  and  _254
REMARK  107  A    between atoms: _254  and  _255
REMARK  108  A    between atoms: _254  and  _257
REMARK  109  A    between atoms: _257  and  _258
REMARK  110  A    between atoms: _263  and  _265
REMARK  111  A    between atoms: _265  and  _266
REMARK  112  A    between atoms: _269  and  _271
REMARK  113  A    between atoms: _271  and  _272
REMARK  114  A    between atoms: _274  and  _276
REMARK  115  A    between atoms: _276  and  _277
REMARK  116  A    between atoms: _276  and  _279
REMARK  117  A    between atoms: _279  and  _280
REMARK  118  A    between atoms: _283  and  _285
REMARK  119  A    between atoms: _285  and  _286
REMARK  120  A    between atoms: _288  and  _290
REMARK  121  A    between atoms: _290  and  _291
REMARK  122  A    between atoms: _290  and  _293
REMARK  123  A    between atoms: _293  and  _294
REMARK  124  A    between atoms: _297  and  _299
REMARK  125  A    between atoms: _299  and  _300
REMARK  126  A    between atoms: _299  and  _302
REMARK  127  A    between atoms: _302  and  _303
REMARK  128  A    between atoms: _306  and  _308
REMARK  129  A    between atoms: _308  and  _309
REMARK  130  A    between atoms: _308  and  _311
REMARK  131  A    between atoms: _311  and  _312
REMARK  132  A    between atoms: _314  and  _316
REMARK  133  A    between atoms: _316  and  _317
REMARK  134  A    between atoms: _316  and  _319
REMARK  135  A    between atoms: _319  and  _320
REMARK  136  A    between atoms: _323  and  _325
REMARK  137  A    between atoms: _325  and  _326
REMARK  138  A    between atoms: _325  and  _328
REMARK  139  A    between atoms: _331  and  _333
REMARK  140  A    between atoms: _333  and  _334
REMARK  141  A    between atoms: _333  and  _336
REMARK  142  A    between atoms: _336  and  _337
REMARK  143  A    between atoms: _342  and  _344
REMARK  144  A    between atoms: _344  and  _345
REMARK  145  A    between atoms: _347  and  _349
REMARK  146  A    between atoms: _349  and  _350
REMARK  147  A    between atoms: _349  and  _352
REMARK  148  A    between atoms: _352  and  _353
REMARK  149  A    between atoms: _353  and  _354
REMARK  150  A    between atoms: _354  and  _355
REMARK  151  A    between atoms: _364  and  _366
REMARK  152  A    between atoms: _366  and  _367
REMARK  153  A    between atoms: _366  and  _369
REMARK  154  A    between atoms: _369  and  _370
REMARK  155  A    between atoms: _370  and  _371
REMARK  156  A    between atoms: _373  and  _375
REMARK  157  A    between atoms: _375  and  _376
REMARK  158  A    between atoms: _375  and  _378
REMARK  159  A    between atoms: _378  and  _379
REMARK  160  A    between atoms: _382  and  _384
REMARK  161  A    between atoms: _384  and  _385
REMARK  162  A    between atoms: _387  and  _389
REMARK  163  A    between atoms: _389  and  _390
REMARK  164  A    between atoms: _389  and  _392
REMARK  165  A    between atoms: _392  and  _393
REMARK  166  A    between atoms: _395  and  _397
REMARK  167  A    between atoms: _397  and  _398
REMARK  168  A    between atoms: _397  and  _400
REMARK  169  A    between atoms: _403  and  _405
REMARK  170  A    between atoms: _405  and  _406
REMARK  171  A    between atoms: _408  and  _410
REMARK  172  A    between atoms: _410  and  _411
REMARK  173  A    between atoms: _413  and  _415
REMARK  174  A    between atoms: _415  and  _416
REMARK  175  A    between atoms: _415  and  _418
REMARK  176  A    between atoms: _418  and  _419
REMARK  177  A    between atoms: _422  and  _424
REMARK  178  A    between atoms: _424  and  _425
REMARK  179  A    between atoms: _424  and  _427
REMARK  180  A    between atoms: _427  and  _428
REMARK  181  A    between atoms: _428  and  _429
REMARK  182  A    between atoms: _431  and  _433
REMARK  183  A    between atoms: _433  and  _434
REMARK  184  A    between atoms: _436  and  _438
REMARK  185  A    between atoms: _438  and  _439
REMARK  186  A    between atoms: _438  and  _441
REMARK  187  A    between atoms: _441  and  _442
REMARK  188  A    between atoms: _446  and  _447
REMARK  189  A    between atoms: _452  and  _454
REMARK  190  A    between atoms: _454  and  _455
REMARK  191  A    between atoms: _454  and  _457
REMARK  192  A    between atoms: _457  and  _458
REMARK  193  A    between atoms: _463  and  _465
REMARK  194  A    between atoms: _465  and  _466
REMARK  195  A    between atoms: _465  and  _468
REMARK  196  A    between atoms: _468  and  _469
REMARK  197  A    between atoms: _474  and  _475
REMARK  198  A    between atoms: _477  and  _479
REMARK  199  A    between atoms: _479  and  _480
REMARK  200  A    between atoms: _479  and  _482
REMARK  201  A    between atoms: _484  and  _486
REMARK  202  A    between atoms: _486  and  _487
REMARK  203  A    between atoms: _486  and  _489
REMARK  204  A    between atoms: _489  and  _490
REMARK  205  A    between atoms: _490  and  _491
REMARK  206  A    between atoms: _491  and  _492
REMARK  207  A    between atoms: _492  and  _493
REMARK  208  A    between atoms: _497  and  _499
REMARK  209  A    between atoms: _499  and  _500
REMARK  210  A    between atoms: _499  and  _502
REMARK  211  A    between atoms: _502  and  _503
REMARK  212  A    between atoms: _503  and  _504
REMARK  213  A    between atoms: _507  and  _509
REMARK  214  A    between atoms: _509  and  _510
REMARK  215  A    between atoms: _509  and  _512
REMARK  216  A    between atoms: _514  and  _516
REMARK  217  A    between atoms: _516  and  _517
REMARK  218  A    between atoms: _520  and  _521
REMARK  219  A    between atoms: _526  and  _528
REMARK  220  A    between atoms: _528  and  _529
REMARK  221  A    between atoms: _528  and  _531
REMARK  222  A    between atoms: _534  and  _536
REMARK  223  A    between atoms: _536  and  _537
REMARK  224  A    between atoms: _536  and  _539
REMARK  225  A    between atoms: _539  and  _540
REMARK  226  A    between atoms: _543  and  _545
REMARK  227  A    between atoms: _545  and  _546
REMARK  228  A    between atoms: _545  and  _548
REMARK  229  A    between atoms: _548  and  _549
REMARK  230  A    between atoms: _555  and  _557
REMARK  231  A    between atoms: _557  and  _558
REMARK  232  A    between atoms: _557  and  _560
REMARK  233  A    between atoms: _560  and  _561
REMARK  234  A    between atoms: _561  and  _562
REMARK  235  A    between atoms: _564  and  _566
REMARK  236  A    between atoms: _566  and  _567
REMARK  237  A    between atoms: _566  and  _569
REMARK  238  A    between atoms: _569  and  _570
REMARK  239  A    between atoms: _570  and  _571
REMARK  240  A    between atoms: _574  and  _576
REMARK  241  A    between atoms: _576  and  _577
REMARK  242  A    between atoms: _576  and  _579
REMARK  243  A    between atoms: _579  and  _580
REMARK  244  A    between atoms: _580  and  _581
REMARK  245  A    between atoms: _581  and  _582
REMARK  246  A    between atoms: _582  and  _583
REMARK  247  A    between atoms: _587  and  _589
REMARK  248  A    between atoms: _589  and  _590
REMARK  249  A    between atoms: _589  and  _592
REMARK  250  A    between atoms: _592  and  _593
REMARK  251  A    between atoms: _598  and  _599
REMARK  252  A    between atoms: _601  and  _603
REMARK  253  A    between atoms: _603  and  _604
REMARK  254  A    between atoms: _603  and  _606
REMARK  255  A    between atoms: _606  and  _607
REMARK  256  A    between atoms: _610  and  _612
REMARK  257  A    between atoms: _612  and  _613
REMARK  258  A    between atoms: _612  and  _615
REMARK  259  A    between atoms: _615  and  _616
REMARK  260  A    between atoms: _621  and  _623
REMARK  261  A    between atoms: _623  and  _624
REMARK  262  A    between atoms: _623  and  _626
REMARK  263  A    between atoms: _626  and  _627
REMARK  264  A    between atoms: _629  and  _631
REMARK  265  A    between atoms: _631  and  _632
REMARK  266  A    between atoms: _631  and  _634
REMARK  267  A    between atoms: _634  and  _635
REMARK  268  A    between atoms: _635  and  _636
REMARK  269  A    between atoms: _636  and  _637
REMARK  270  A    between atoms: _637  and  _638
REMARK  271  A    between atoms: _642  and  _644
REMARK  272  A    between atoms: _644  and  _645
REMARK  273  A    between atoms: _644  and  _647
REMARK  274  A    between atoms: _647  and  _648
REMARK  275  A    between atoms: _648  and  _649
REMARK  276  A    between atoms: _654  and  _656
REMARK  277  A    between atoms: _656  and  _657
REMARK  278  A    between atoms: _656  and  _659
REMARK  279  A    between atoms: _662  and  _664
REMARK  280  A    between atoms: _664  and  _665
REMARK  281  A    between atoms: _664  and  _667
REMARK  282  A    between atoms: _667  and  _668
REMARK  283  A    between atoms: _674  and  _676
REMARK  284  A    between atoms: _676  and  _677
REMARK  285  A    between atoms: _680  and  _682
REMARK  286  A    between atoms: _682  and  _683
REMARK  287  A    between atoms: _682  and  _685
REMARK  288  A    between atoms: _685  and  _686
REMARK  289  A    between atoms: _689  and  _691
REMARK  290  A    between atoms: _691  and  _692
REMARK  291  A    between atoms: _691  and  _694
REMARK  292  A    between atoms: _694  and  _695
REMARK  293  A    between atoms: _695  and  _696
REMARK  294  A    between atoms: _696  and  _697
REMARK  295  A    between atoms: _706  and  _708
REMARK  296  A    between atoms: _708  and  _709
REMARK  297  A    between atoms: _708  and  _711
REMARK  298  A    between atoms: _711  and  _712
REMARK  299  A    between atoms: _718  and  _720
REMARK  300  A    between atoms: _720  and  _721
REMARK  301  A    between atoms: _720  and  _723
REMARK  302  A    between atoms: _723  and  _724
REMARK  303  A    between atoms: _727  and  _729
REMARK  304  A    between atoms: _729  and  _730
REMARK  305  A    between atoms: _729  and  _732
REMARK  306  A    between atoms: _732  and  _733
REMARK  307  A    between atoms: _738  and  _739
REMARK  308  A    between atoms: _741  and  _743
REMARK  309  A    between atoms: _743  and  _744
REMARK  310  A    between atoms: _747  and  _749
REMARK  311  A    between atoms: _749  and  _750
REMARK  312  A    between atoms: _749  and  _752
REMARK  313  A    between atoms: _752  and  _753
REMARK  314  A    between atoms: _753  and  _754
REMARK  315  A    between atoms: _756  and  _758
REMARK  316  A    between atoms: _758  and  _759
REMARK  317  A    between atoms: _758  and  _761
REMARK  318  A    between atoms: _761  and  _762
REMARK  319  A    between atoms: _767  and  _769
REMARK  320  A    between atoms: _769  and  _770
REMARK  321  A    between atoms: _769  and  _772
REMARK  322  A    between atoms: _772  and  _773
REMARK  323  A    between atoms: _773  and  _774
REMARK  324  A    between atoms: _774  and  _775
REMARK  325  A    between atoms: _784  and  _786
REMARK  326  A    between atoms: _786  and  _787
REMARK  327  A    between atoms: _786  and  _789
REMARK  328  A    between atoms: _789  and  _790
REMARK  329  A    between atoms: _790  and  _791
REMARK  330  A    between atoms: _794  and  _796
REMARK  331  A    between atoms: _796  and  _797
REMARK  332  A    between atoms: _796  and  _799
REMARK  333  A    between atoms: _802  and  _804
REMARK  334  A    between atoms: _804  and  _805
REMARK  335  A    between atoms: _804  and  _807
REMARK  336  A    between atoms: _807  and  _808
REMARK                            x       y       z     vdW  Elec       q    Type
REMARK                         _______ _______ _______ _____ _____    ______ ____
ROOT
ATOM      1  O   HOH     1      11.629  -1.912   3.109  0.00  0.00    +0.000 OA
ENDROOT
TORSDOF 0
REMARK  Name = ../refined-set-2016/1i5r/1i5r_pocket.pdb
REMARK  336 active torsions:
REMARK  status: ('A' for Active; 'I' for Inactive)
REMARK    1  A    between atoms: _1  and  _3
REMARK    2  A    between atoms: _3  and  _4
REMARK    3  A    between atoms: _3  and  _6
REMARK    4  A    between atoms: _6  and  _7
REMARK    5  A    between atoms: _10  and  _12
REMARK    6  A    between atoms: _12  and  _13
REMARK    7  A    between atoms: _12  and  _15
REMARK    8  A    between atoms: _15  and  _16
REMARK    9  A    between atoms: _19  and  _21
REMARK   10  A    between atoms: _21  and  _22
REMARK   11  A    between atoms: _24  and  _26
REMARK   12  A    between atoms: _26  and  _27
REMARK   13  A    between atoms: _26  and  _29
REMARK   14  A    between atoms: _31  and  _33
REMARK   15  A    between atoms: _33  and  _34
REMARK   16  A    between atoms: _33  and  _36
REMARK   17  A    between atoms: _36  and  _37
REMARK   18  A    between atoms: _39  and  _41
REMARK   19  A    between atoms: _41  and  _42
REMARK   20  A    between atoms: _41  and  _44
REMARK   21  A    between atoms: _44  and  _45
REMARK   22  A    between atoms: _47  and  _49
REMARK   23  A    between atoms: _49  and  _50
REMARK   24  A    between atoms: _52  and  _54
REMARK   25  A    between atoms: _54  and  _55
REMARK   26  A    between atoms: _54  and  _57
REMARK   27  A    between atoms: _57  and  _58
REMARK   28  A    between atoms: _61  and  _63
REMARK   29  A    between atoms: _63  and  _64
REMARK   30  A    between atoms: _66  and  _68
REMARK   31  A    between atoms: _68  and  _69
REMARK   32  A    between atoms: _68  and  _71
REMARK   33  A    between atoms: _71  and  _72
REMARK   34  A    between atoms: _75  and  _77
REMARK   35  A    between atoms: _77  and  _78
REMARK   36  A    between atoms: _77  and  _80
REMARK   37  A    between atoms: _80  and  _81
REMARK   38  A    between atoms: _86  and  _88
REMARK   39  A    between atoms: _88  and  _89
REMARK   40  A    between atoms: _88  and  _91
REMARK   41  A    between atoms: _91  and  _92
REMARK   42  A    between atoms: _95  and  _97
REMARK   43  A    between atoms: _97  and  _98
REMARK   44  A    between atoms: _97  and  _100
REMARK   45  A    between atoms: _100  and  _101
REMARK   46  A    between atoms: _104  and  _106
REMARK   47  A    between atoms: _106  and  _107
REMARK   48  A    between atoms: _106  and  _109
REMARK   49  A    between atoms: _109  and  _110
REMARK   50  A    between atoms: _110  and  _111
REMARK   51  A    between atoms: _111  and  _112
REMARK   52  A    between atoms: _121  and  _123
REMARK   53  A    between atoms: _123  and  _124
REMARK   54  A    between atoms: _123  and  _126
REMARK   55  A    between atoms: _126  and  _127
REMARK   56  A    between atoms: _130  and  _132
REMARK   57  A    between atoms: _132  and  _133
REMARK   58  A    between atoms: _132  and  _135
REMARK   59  A    between atoms: _135  and  _136
REMARK   60  A    between atoms: _139  and  _141
REMARK   61  A    between atoms: _141  and  _142
REMARK   62  A    between atoms: _141  and  _144
REMARK   63  A    between atoms: _144  and  _145
REMARK   64  A    between atoms: _145  and  _146
REMARK   65  A    between atoms: _146  and  _147
REMARK   66  A    between atoms: _156  and  _158
REMARK   67  A    between atoms: _158  and  _159
REMARK   68  A    between atoms: _158  and  _161
REMARK   69  A    between atoms: _161  and  _162
REMARK   70  A    between atoms: _165  and  _167
REMARK   71  A    between atoms: _167  and  _168
REMARK   72  A    between atoms: _167  and  _170
REMARK   73  A    between atoms: _170  and  _171
REMARK   74  A    between atoms: _171  and  _172
REMARK   75  A    between atoms: _177  and  _179
REMARK   76  A    between atoms: _179  and  _180
REMARK   77  A    between atoms: _179  and  _182
REMARK   78  A    between atoms: _182  and  _183
REMARK   79  A    between atoms: _186  and  _188
REMARK   80  A    between atoms: _188  and  _189
REMARK   81  A    between atoms: _188  and  _191
REMARK   82  A    between atoms: _191  and  _192
REMARK   83  A    between atoms: _195  and  _197
REMARK   84  A    between atoms: _197  and  _198
REMARK   85  A    between atoms: _197  and  _200
REMARK   86  A    between atoms: _203  and  _205
REMARK   87  A    between atoms: _205  and  _206
REMARK   88  A    between atoms: _205  and  _208
REMARK   89  A    between atoms: _208  and  _209
REMARK   90  A    between atoms: _209  and  _210
REMARK   91  A    between atoms: _210  and  _211
REMARK   92  A    between atoms: _220  and  _222
REMARK   93  A    between atoms: _222  and  _223
REMARK   94  A    between atoms: _222  and  _225
REMARK   95  A    between atoms: _225  and  _226
REMARK   96  A    between atoms: _229  and  _231
REMARK   97  A    between atoms: _231  and  _232
REMARK   98  A    between atoms: _231  and  _234
REMARK   99  A    between atoms: _234  and  _235
REMARK  100  A    between atoms: _237  and  _239
REMARK  101  A    between atoms: _239  and  _240
REMARK  102  A    between atoms: _239  and  _242
REMARK  103  A    between atoms: _245  and  _247
REMARK  104  A    between atoms: _247  and  _248
REMARK  105  A    between atoms: _247  and  _250
REMARK  106  A    between atoms: _252  and  _254
REMARK  107  A    between atoms: _254  and  _255
REMARK  108  A    between atoms: _254  and  _257
REMARK  109  A    between atoms: _257  and  _258
REMARK  110  A    between atoms: _263  and  _265
REMARK  111  A    between atoms: _265  and  _266
REMARK  112  A    between atoms: _269  and  _271
REMARK  113  A    between atoms: _271  and  _272
REMARK  114  A    between atoms: _274  and  _276
REMARK  115  A    between atoms: _276  and  _277
REMARK  116  A    between atoms: _276  and  _279
REMARK  117  A    between atoms: _279  and  _280
REMARK  118  A    between atoms: _283  and  _285
REMARK  119  A    between atoms: _285  and  _286
REMARK  120  A    between atoms: _288  and  _290
REMARK  121  A    between atoms: _290  and  _291
REMARK  122  A    between atoms: _290  and  _293
REMARK  123  A    between atoms: _293  and  _294
REMARK  124  A    between atoms: _297  and  _299
REMARK  125  A    between atoms: _299  and  _300
REMARK  126  A    between atoms: _299  and  _302
REMARK  127  A    between atoms: _302  and  _303
REMARK  128  A    between atoms: _306  and  _308
REMARK  129  A    between atoms: _308  and  _309
REMARK  130  A    between atoms: _308  and  _311
REMARK  131  A    between atoms: _311  and  _312
REMARK  132  A    between atoms: _314  and  _316
REMARK  133  A    between atoms: _316  and  _317
REMARK  134  A    between atoms: _316  and  _319
REMARK  135  A    between atoms: _319  and  _320
REMARK  136  A    between atoms: _323  and  _325
REMARK  137  A    between atoms: _325  and  _326
REMARK  138  A    between atoms: _325  and  _328
REMARK  139  A    between atoms: _331  and  _333
REMARK  140  A    between atoms: _333  and  _334
REMARK  141  A    between atoms: _333  and  _336
REMARK  142  A    between atoms: _336  and  _337
REMARK  143  A    between atoms: _342  and  _344
REMARK  144  A    between atoms: _344  and  _345
REMARK  145  A    between atoms: _347  and  _349
REMARK  146  A    between atoms: _349  and  _350
REMARK  147  A    between atoms: _349  and  _352
REMARK  148  A    between atoms: _352  and  _353
REMARK  149  A    between atoms: _353  and  _354
REMARK  150  A    between atoms: _354  and  _355
REMARK  151  A    between atoms: _364  and  _366
REMARK  152  A    between atoms: _366  and  _367
REMARK  153  A    between atoms: _366  and  _369
REMARK  154  A    between atoms: _369  and  _370
REMARK  155  A    between atoms: _370  and  _371
REMARK  156  A    between atoms: _373  and  _375
REMARK  157  A    between atoms: _375  and  _376
REMARK  158  A    between atoms: _375  and  _378
REMARK  159  A    between atoms: _378  and  _379
REMARK  160  A    between atoms: _382  and  _384
REMARK  161  A    between atoms: _384  and  _385
REMARK  162  A    between atoms: _387  and  _389
REMARK  163  A    between atoms: _389  and  _390
REMARK  164  A    between atoms: _389  and  _392
REMARK  165  A    between atoms: _392  and  _393
REMARK  166  A    between atoms: _395  and  _397
REMARK  167  A    between atoms: _397  and  _398
REMARK  168  A    between atoms: _397  and  _400
REMARK  169  A    between atoms: _403  and  _405
REMARK  170  A    between atoms: _405  and  _406
REMARK  171  A    between atoms: _408  and  _410
REMARK  172  A    between atoms: _410  and  _411
REMARK  173  A    between atoms: _413  and  _415
REMARK  174  A    between atoms: _415  and  _416
REMARK  175  A    between atoms: _415  and  _418
REMARK  176  A    between atoms: _418  and  _419
REMARK  177  A    between atoms: _422  and  _424
REMARK  178  A    between atoms: _424  and  _425
REMARK  179  A    between atoms: _424  and  _427
REMARK  180  A    between atoms: _427  and  _428
REMARK  181  A    between atoms: _428  and  _429
REMARK  182  A    between atoms: _431  and  _433
REMARK  183  A    between atoms: _433  and  _434
REMARK  184  A    between atoms: _436  and  _438
REMARK  185  A    between atoms: _438  and  _439
REMARK  186  A    between atoms: _438  and  _441
REMARK  187  A    between atoms: _441  and  _442
REMARK  188  A    between atoms: _446  and  _447
REMARK  189  A    between atoms: _452  and  _454
REMARK  190  A    between atoms: _454  and  _455
REMARK  191  A    between atoms: _454  and  _457
REMARK  192  A    between atoms: _457  and  _458
REMARK  193  A    between atoms: _463  and  _465
REMARK  194  A    between atoms: _465  and  _466
REMARK  195  A    between atoms: _465  and  _468
REMARK  196  A    between atoms: _468  and  _469
REMARK  197  A    between atoms: _474  and  _475
REMARK  198  A    between atoms: _477  and  _479
REMARK  199  A    between atoms: _479  and  _480
REMARK  200  A    between atoms: _479  and  _482
REMARK  201  A    between atoms: _484  and  _486
REMARK  202  A    between atoms: _486  and  _487
REMARK  203  A    between atoms: _486  and  _489
REMARK  204  A    between atoms: _489  and  _490
REMARK  205  A    between atoms: _490  and  _491
REMARK  206  A    between atoms: _491  and  _492
REMARK  207  A    between atoms: _492  and  _493
REMARK  208  A    between atoms: _497  and  _499
REMARK  209  A    between atoms: _499  and  _500
REMARK  210  A    between atoms: _499  and  _502
REMARK  211  A    between atoms: _502  and  _503
REMARK  212  A    between atoms: _503  and  _504
REMARK  213  A    between atoms: _507  and  _509
REMARK  214  A    between atoms: _509  and  _510
REMARK  215  A    between atoms: _509  and  _512
REMARK  216  A    between atoms: _514  and  _516
REMARK  217  A    between atoms: _516  and  _517
REMARK  218  A    between atoms: _520  and  _521
REMARK  219  A    between atoms: _526  and  _528
REMARK  220  A    between atoms: _528  and  _529
REMARK  221  A    between atoms: _528  and  _531
REMARK  222  A    between atoms: _534  and  _536
REMARK  223  A    between atoms: _536  and  _537
REMARK  224  A    between atoms: _536  and  _539
REMARK  225  A    between atoms: _539  and  _540
REMARK  226  A    between atoms: _543  and  _545
REMARK  227  A    between atoms: _545  and  _546
REMARK  228  A    between atoms: _545  and  _548
REMARK  229  A    between atoms: _548  and  _549
REMARK  230  A    between atoms: _555  and  _557
REMARK  231  A    between atoms: _557  and  _558
REMARK  232  A    between atoms: _557  and  _560
REMARK  233  A    between atoms: _560  and  _561
REMARK  234  A    between atoms: _561  and  _562
REMARK  235  A    between atoms: _564  and  _566
REMARK  236  A    between atoms: _566  and  _567
REMARK  237  A    between atoms: _566  and  _569
REMARK  238  A    between atoms: _569  and  _570
REMARK  239  A    between atoms: _570  and  _571
REMARK  240  A    between atoms: _574  and  _576
REMARK  241  A    between atoms: _576  and  _577
REMARK  242  A    between atoms: _576  and  _579
REMARK  243  A    between atoms: _579  and  _580
REMARK  244  A    between atoms: _580  and  _581
REMARK  245  A    between atoms: _581  and  _582
REMARK  246  A    between atoms: _582  and  _583
REMARK  247  A    between atoms: _587  and  _589
REMARK  248  A    between atoms: _589  and  _590
REMARK  249  A    between atoms: _589  and  _592
REMARK  250  A    between atoms: _592  and  _593
REMARK  251  A    between atoms: _598  and  _599
REMARK  252  A    between atoms: _601  and  _603
REMARK  253  A    between atoms: _603  and  _604
REMARK  254  A    between atoms: _603  and  _606
REMARK  255  A    between atoms: _606  and  _607
REMARK  256  A    between atoms: _610  and  _612
REMARK  257  A    between atoms: _612  and  _613
REMARK  258  A    between atoms: _612  and  _615
REMARK  259  A    between atoms: _615  and  _616
REMARK  260  A    between atoms: _621  and  _623
REMARK  261  A    between atoms: _623  and  _624
REMARK  262  A    between atoms: _623  and  _626
REMARK  263  A    between atoms: _626  and  _627
REMARK  264  A    between atoms: _629  and  _631
REMARK  265  A    between atoms: _631  and  _632
REMARK  266  A    between atoms: _631  and  _634
REMARK  267  A    between atoms: _634  and  _635
REMARK  268  A    between atoms: _635  and  _636
REMARK  269  A    between atoms: _636  and  _637
REMARK  270  A    between atoms: _637  and  _638
REMARK  271  A    between atoms: _642  and  _644
REMARK  272  A    between atoms: _644  and  _645
REMARK  273  A    between atoms: _644  and  _647
REMARK  274  A    between atoms: _647  and  _648
REMARK  275  A    between atoms: _648  and  _649
REMARK  276  A    between atoms: _654  and  _656
REMARK  277  A    between atoms: _656  and  _657
REMARK  278  A    between atoms: _656  and  _659
REMARK  279  A    between atoms: _662  and  _664
REMARK  280  A    between atoms: _664  and  _665
REMARK  281  A    between atoms: _664  and  _667
REMARK  282  A    between atoms: _667  and  _668
REMARK  283  A    between atoms: _674  and  _676
REMARK  284  A    between atoms: _676  and  _677
REMARK  285  A    between atoms: _680  and  _682
REMARK  286  A    between atoms: _682  and  _683
REMARK  287  A    between atoms: _682  and  _685
REMARK  288  A    between atoms: _685  and  _686
REMARK  289  A    between atoms: _689  and  _691
REMARK  290  A    between atoms: _691  and  _692
REMARK  291  A    between atoms: _691  and  _694
REMARK  292  A    between atoms: _694  and  _695
REMARK  293  A    between atoms: _695  and  _696
REMARK  294  A    between atoms: _696  and  _697
REMARK  295  A    between atoms: _706  and  _708
REMARK  296  A    between atoms: _708  and  _709
REMARK  297  A    between atoms: _708  and  _711
REMARK  298  A    between atoms: _711  and  _712
REMARK  299  A    between atoms: _718  and  _720
REMARK  300  A    between atoms: _720  and  _721
REMARK  301  A    between atoms: _720  and  _723
REMARK  302  A    between atoms: _723  and  _724
REMARK  303  A    between atoms: _727  and  _729
REMARK  304  A    between atoms: _729  and  _730
REMARK  305  A    between atoms: _729  and  _732
REMARK  306  A    between atoms: _732  and  _733
REMARK  307  A    between atoms: _738  and  _739
REMARK  308  A    between atoms: _741  and  _743
REMARK  309  A    between atoms: _743  and  _744
REMARK  310  A    between atoms: _747  and  _749
REMARK  311  A    between atoms: _749  and  _750
REMARK  312  A    between atoms: _749  and  _752
REMARK  313  A    between atoms: _752  and  _753
REMARK  314  A    between atoms: _753  and  _754
REMARK  315  A    between atoms: _756  and  _758
REMARK  316  A    between atoms: _758  and  _759
REMARK  317  A    between atoms: _758  and  _761
REMARK  318  A    between atoms: _761  and  _762
REMARK  319  A    between atoms: _767  and  _769
REMARK  320  A    between atoms: _769  and  _770
REMARK  321  A    between atoms: _769  and  _772
REMARK  322  A    between atoms: _772  and  _773
REMARK  323  A    between atoms: _773  and  _774
REMARK  324  A    between atoms: _774  and  _775
REMARK  325  A    between atoms: _784  and  _786
REMARK  326  A    between atoms: _786  and  _787
REMARK  327  A    between atoms: _786  and  _789
REMARK  328  A    between atoms: _789  and  _790
REMARK  329  A    between atoms: _790  and  _791
REMARK  330  A    between atoms: _794  and  _796
REMARK  331  A    between atoms: _796  and  _797
REMARK  332  A    between atoms: _796  and  _799
REMARK  333  A    between atoms: _802  and  _804
REMARK  334  A    between atoms: _804  and  _805
REMARK  335  A    between atoms: _804  and  _807
REMARK  336  A    between atoms: _807  and  _808
REMARK                            x       y       z     vdW  Elec       q    Type
REMARK                         _______ _______ _______ _____ _____    ______ ____
ROOT
ATOM      1  O   HOH     1      13.038  -0.029  -1.112  0.00  0.00    +0.000 OA
ENDROOT
TORSDOF 0
REMARK  Name = ../refined-set-2016/1i5r/1i5r_pocket.pdb
REMARK  336 active torsions:
REMARK  status: ('A' for Active; 'I' for Inactive)
REMARK    1  A    between atoms: _1  and  _3
REMARK    2  A    between atoms: _3  and  _4
REMARK    3  A    between atoms: _3  and  _6
REMARK    4  A    between atoms: _6  and  _7
REMARK    5  A    between atoms: _10  and  _12
REMARK    6  A    between atoms: _12  and  _13
REMARK    7  A    between atoms: _12  and  _15
REMARK    8  A    between atoms: _15  and  _16
REMARK    9  A    between atoms: _19  and  _21
REMARK   10  A    between atoms: _21  and  _22
REMARK   11  A    between atoms: _24  and  _26
REMARK   12  A    between atoms: _26  and  _27
REMARK   13  A    between atoms: _26  and  _29
REMARK   14  A    between atoms: _31  and  _33
REMARK   15  A    between atoms: _33  and  _34
REMARK   16  A    between atoms: _33  and  _36
REMARK   17  A    between atoms: _36  and  _37
REMARK   18  A    between atoms: _39  and  _41
REMARK   19  A    between atoms: _41  and  _42
REMARK   20  A    between atoms: _41  and  _44
REMARK   21  A    between atoms: _44  and  _45
REMARK   22  A    between atoms: _47  and  _49
REMARK   23  A    between atoms: _49  and  _50
REMARK   24  A    between atoms: _52  and  _54
REMARK   25  A    between atoms: _54  and  _55
REMARK   26  A    between atoms: _54  and  _57
REMARK   27  A    between atoms: _57  and  _58
REMARK   28  A    between atoms: _61  and  _63
REMARK   29  A    between atoms: _63  and  _64
REMARK   30  A    between atoms: _66  and  _68
REMARK   31  A    between atoms: _68  and  _69
REMARK   32  A    between atoms: _68  and  _71
REMARK   33  A    between atoms: _71  and  _72
REMARK   34  A    between atoms: _75  and  _77
REMARK   35  A    between atoms: _77  and  _78
REMARK   36  A    between atoms: _77  and  _80
REMARK   37  A    between atoms: _80  and  _81
REMARK   38  A    between atoms: _86  and  _88
REMARK   39  A    between atoms: _88  and  _89
REMARK   40  A    between atoms: _88  and  _91
REMARK   41  A    between atoms: _91  and  _92
REMARK   42  A    between atoms: _95  and  _97
REMARK   43  A    between atoms: _97  and  _98
REMARK   44  A    between atoms: _97  and  _100
REMARK   45  A    between atoms: _100  and  _101
REMARK   46  A    between atoms: _104  and  _106
REMARK   47  A    between atoms: _106  and  _107
REMARK   48  A    between atoms: _106  and  _109
REMARK   49  A    between atoms: _109  and  _110
REMARK   50  A    between atoms: _110  and  _111
REMARK   51  A    between atoms: _111  and  _112
REMARK   52  A    between atoms: _121  and  _123
REMARK   53  A    between atoms: _123  and  _124
REMARK   54  A    between atoms: _123  and  _126
REMARK   55  A    between atoms: _126  and  _127
REMARK   56  A    between atoms: _130  and  _132
REMARK   57  A    between atoms: _132  and  _133
REMARK   58  A    between atoms: _132  and  _135
REMARK   59  A    between atoms: _135  and  _136
REMARK   60  A    between atoms: _139  and  _141
REMARK   61  A    between atoms: _141  and  _142
REMARK   62  A    between atoms: _141  and  _144
REMARK   63  A    between atoms: _144  and  _145
REMARK   64  A    between atoms: _145  and  _146
REMARK   65  A    between atoms: _146  and  _147
REMARK   66  A    between atoms: _156  and  _158
REMARK   67  A    between atoms: _158  and  _159
REMARK   68  A    between atoms: _158  and  _161
REMARK   69  A    between atoms: _161  and  _162
REMARK   70  A    between atoms: _165  and  _167
REMARK   71  A    between atoms: _167  and  _168
REMARK   72  A    between atoms: _167  and  _170
REMARK   73  A    between atoms: _170  and  _171
REMARK   74  A    between atoms: _171  and  _172
REMARK   75  A    between atoms: _177  and  _179
REMARK   76  A    between atoms: _179  and  _180
REMARK   77  A    between atoms: _179  and  _182
REMARK   78  A    between atoms: _182  and  _183
REMARK   79  A    between atoms: _186  and  _188
REMARK   80  A    between atoms: _188  and  _189
REMARK   81  A    between atoms: _188  and  _191
REMARK   82  A    between atoms: _191  and  _192
REMARK   83  A    between atoms: _195  and  _197
REMARK   84  A    between atoms: _197  and  _198
REMARK   85  A    between atoms: _197  and  _200
REMARK   86  A    between atoms: _203  and  _205
REMARK   87  A    between atoms: _205  and  _206
REMARK   88  A    between atoms: _205  and  _208
REMARK   89  A    between atoms: _208  and  _209
REMARK   90  A    between atoms: _209  and  _210
REMARK   91  A    between atoms: _210  and  _211
REMARK   92  A    between atoms: _220  and  _222
REMARK   93  A    between atoms: _222  and  _223
REMARK   94  A    between atoms: _222  and  _225
REMARK   95  A    between atoms: _225  and  _226
REMARK   96  A    between atoms: _229  and  _231
REMARK   97  A    between atoms: _231  and  _232
REMARK   98  A    between atoms: _231  and  _234
REMARK   99  A    between atoms: _234  and  _235
REMARK  100  A    between atoms: _237  and  _239
REMARK  101  A    between atoms: _239  and  _240
REMARK  102  A    between atoms: _239  and  _242
REMARK  103  A    between atoms: _245  and  _247
REMARK  104  A    between atoms: _247  and  _248
REMARK  105  A    between atoms: _247  and  _250
REMARK  106  A    between atoms: _252  and  _254
REMARK  107  A    between atoms: _254  and  _255
REMARK  108  A    between atoms: _254  and  _257
REMARK  109  A    between atoms: _257  and  _258
REMARK  110  A    between atoms: _263  and  _265
REMARK  111  A    between atoms: _265  and  _266
REMARK  112  A    between atoms: _269  and  _271
REMARK  113  A    between atoms: _271  and  _272
REMARK  114  A    between atoms: _274  and  _276
REMARK  115  A    between atoms: _276  and  _277
REMARK  116  A    between atoms: _276  and  _279
REMARK  117  A    between atoms: _279  and  _280
REMARK  118  A    between atoms: _283  and  _285
REMARK  119  A    between atoms: _285  and  _286
REMARK  120  A    between atoms: _288  and  _290
REMARK  121  A    between atoms: _290  and  _291
REMARK  122  A    between atoms: _290  and  _293
REMARK  123  A    between atoms: _293  and  _294
REMARK  124  A    between atoms: _297  and  _299
REMARK  125  A    between atoms: _299  and  _300
REMARK  126  A    between atoms: _299  and  _302
REMARK  127  A    between atoms: _302  and  _303
REMARK  128  A    between atoms: _306  and  _308
REMARK  129  A    between atoms: _308  and  _309
REMARK  130  A    between atoms: _308  and  _311
REMARK  131  A    between atoms: _311  and  _312
REMARK  132  A    between atoms: _314  and  _316
REMARK  133  A    between atoms: _316  and  _317
REMARK  134  A    between atoms: _316  and  _319
REMARK  135  A    between atoms: _319  and  _320
REMARK  136  A    between atoms: _323  and  _325
REMARK  137  A    between atoms: _325  and  _326
REMARK  138  A    between atoms: _325  and  _328
REMARK  139  A    between atoms: _331  and  _333
REMARK  140  A    between atoms: _333  and  _334
REMARK  141  A    between atoms: _333  and  _336
REMARK  142  A    between atoms: _336  and  _337
REMARK  143  A    between atoms: _342  and  _344
REMARK  144  A    between atoms: _344  and  _345
REMARK  145  A    between atoms: _347  and  _349
REMARK  146  A    between atoms: _349  and  _350
REMARK  147  A    between atoms: _349  and  _352
REMARK  148  A    between atoms: _352  and  _353
REMARK  149  A    between atoms: _353  and  _354
REMARK  150  A    between atoms: _354  and  _355
REMARK  151  A    between atoms: _364  and  _366
REMARK  152  A    between atoms: _366  and  _367
REMARK  153  A    between atoms: _366  and  _369
REMARK  154  A    between atoms: _369  and  _370
REMARK  155  A    between atoms: _370  and  _371
REMARK  156  A    between atoms: _373  and  _375
REMARK  157  A    between atoms: _375  and  _376
REMARK  158  A    between atoms: _375  and  _378
REMARK  159  A    between atoms: _378  and  _379
REMARK  160  A    between atoms: _382  and  _384
REMARK  161  A    between atoms: _384  and  _385
REMARK  162  A    between atoms: _387  and  _389
REMARK  163  A    between atoms: _389  and  _390
REMARK  164  A    between atoms: _389  and  _392
REMARK  165  A    between atoms: _392  and  _393
REMARK  166  A    between atoms: _395  and  _397
REMARK  167  A    between atoms: _397  and  _398
REMARK  168  A    between atoms: _397  and  _400
REMARK  169  A    between atoms: _403  and  _405
REMARK  170  A    between atoms: _405  and  _406
REMARK  171  A    between atoms: _408  and  _410
REMARK  172  A    between atoms: _410  and  _411
REMARK  173  A    between atoms: _413  and  _415
REMARK  174  A    between atoms: _415  and  _416
REMARK  175  A    between atoms: _415  and  _418
REMARK  176  A    between atoms: _418  and  _419
REMARK  177  A    between atoms: _422  and  _424
REMARK  178  A    between atoms: _424  and  _425
REMARK  179  A    between atoms: _424  and  _427
REMARK  180  A    between atoms: _427  and  _428
REMARK  181  A    between atoms: _428  and  _429
REMARK  182  A    between atoms: _431  and  _433
REMARK  183  A    between atoms: _433  and  _434
REMARK  184  A    between atoms: _436  and  _438
REMARK  185  A    between atoms: _438  and  _439
REMARK  186  A    between atoms: _438  and  _441
REMARK  187  A    between atoms: _441  and  _442
REMARK  188  A    between atoms: _446  and  _447
REMARK  189  A    between atoms: _452  and  _454
REMARK  190  A    between atoms: _454  and  _455
REMARK  191  A    between atoms: _454  and  _457
REMARK  192  A    between atoms: _457  and  _458
REMARK  193  A    between atoms: _463  and  _465
REMARK  194  A    between atoms: _465  and  _466
REMARK  195  A    between atoms: _465  and  _468
REMARK  196  A    between atoms: _468  and  _469
REMARK  197  A    between atoms: _474  and  _475
REMARK  198  A    between atoms: _477  and  _479
REMARK  199  A    between atoms: _479  and  _480
REMARK  200  A    between atoms: _479  and  _482
REMARK  201  A    between atoms: _484  and  _486
REMARK  202  A    between atoms: _486  and  _487
REMARK  203  A    between atoms: _486  and  _489
REMARK  204  A    between atoms: _489  and  _490
REMARK  205  A    between atoms: _490  and  _491
REMARK  206  A    between atoms: _491  and  _492
REMARK  207  A    between atoms: _492  and  _493
REMARK  208  A    between atoms: _497  and  _499
REMARK  209  A    between atoms: _499  and  _500
REMARK  210  A    between atoms: _499  and  _502
REMARK  211  A    between atoms: _502  and  _503
REMARK  212  A    between atoms: _503  and  _504
REMARK  213  A    between atoms: _507  and  _509
REMARK  214  A    between atoms: _509  and  _510
REMARK  215  A    between atoms: _509  and  _512
REMARK  216  A    between atoms: _514  and  _516
REMARK  217  A    between atoms: _516  and  _517
REMARK  218  A    between atoms: _520  and  _521
REMARK  219  A    between atoms: _526  and  _528
REMARK  220  A    between atoms: _528  and  _529
REMARK  221  A    between atoms: _528  and  _531
REMARK  222  A    between atoms: _534  and  _536
REMARK  223  A    between atoms: _536  and  _537
REMARK  224  A    between atoms: _536  and  _539
REMARK  225  A    between atoms: _539  and  _540
REMARK  226  A    between atoms: _543  and  _545
REMARK  227  A    between atoms: _545  and  _546
REMARK  228  A    between atoms: _545  and  _548
REMARK  229  A    between atoms: _548  and  _549
REMARK  230  A    between atoms: _555  and  _557
REMARK  231  A    between atoms: _557  and  _558
REMARK  232  A    between atoms: _557  and  _560
REMARK  233  A    between atoms: _560  and  _561
REMARK  234  A    between atoms: _561  and  _562
REMARK  235  A    between atoms: _564  and  _566
REMARK  236  A    between atoms: _566  and  _567
REMARK  237  A    between atoms: _566  and  _569
REMARK  238  A    between atoms: _569  and  _570
REMARK  239  A    between atoms: _570  and  _571
REMARK  240  A    between atoms: _574  and  _576
REMARK  241  A    between atoms: _576  and  _577
REMARK  242  A    between atoms: _576  and  _579
REMARK  243  A    between atoms: _579  and  _580
REMARK  244  A    between atoms: _580  and  _581
REMARK  245  A    between atoms: _581  and  _582
REMARK  246  A    between atoms: _582  and  _583
REMARK  247  A    between atoms: _587  and  _589
REMARK  248  A    between atoms: _589  and  _590
REMARK  249  A    between atoms: _589  and  _592
REMARK  250  A    between atoms: _592  and  _593
REMARK  251  A    between atoms: _598  and  _599
REMARK  252  A    between atoms: _601  and  _603
REMARK  253  A    between atoms: _603  and  _604
REMARK  254  A    between atoms: _603  and  _606
REMARK  255  A    between atoms: _606  and  _607
REMARK  256  A    between atoms: _610  and  _612
REMARK  257  A    between atoms: _612  and  _613
REMARK  258  A    between atoms: _612  and  _615
REMARK  259  A    between atoms: _615  and  _616
REMARK  260  A    between atoms: _621  and  _623
REMARK  261  A    between atoms: _623  and  _624
REMARK  262  A    between atoms: _623  and  _626
REMARK  263  A    between atoms: _626  and  _627
REMARK  264  A    between atoms: _629  and  _631
REMARK  265  A    between atoms: _631  and  _632
REMARK  266  A    between atoms: _631  and  _634
REMARK  267  A    between atoms: _634  and  _635
REMARK  268  A    between atoms: _635  and  _636
REMARK  269  A    between atoms: _636  and  _637
REMARK  270  A    between atoms: _637  and  _638
REMARK  271  A    between atoms: _642  and  _644
REMARK  272  A    between atoms: _644  and  _645
REMARK  273  A    between atoms: _644  and  _647
REMARK  274  A    between atoms: _647  and  _648
REMARK  275  A    between atoms: _648  and  _649
REMARK  276  A    between atoms: _654  and  _656
REMARK  277  A    between atoms: _656  and  _657
REMARK  278  A    between atoms: _656  and  _659
REMARK  279  A    between atoms: _662  and  _664
REMARK  280  A    between atoms: _664  and  _665
REMARK  281  A    between atoms: _664  and  _667
REMARK  282  A    between atoms: _667  and  _668
REMARK  283  A    between atoms: _674  and  _676
REMARK  284  A    between atoms: _676  and  _677
REMARK  285  A    between atoms: _680  and  _682
REMARK  286  A    between atoms: _682  and  _683
REMARK  287  A    between atoms: _682  and  _685
REMARK  288  A    between atoms: _685  and  _686
REMARK  289  A    between atoms: _689  and  _691
REMARK  290  A    between atoms: _691  and  _692
REMARK  291  A    between atoms: _691  and  _694
REMARK  292  A    between atoms: _694  and  _695
REMARK  293  A    between atoms: _695  and  _696
REMARK  294  A    between atoms: _696  and  _697
REMARK  295  A    between atoms: _706  and  _708
REMARK  296  A    between atoms: _708  and  _709
REMARK  297  A    between atoms: _708  and  _711
REMARK  298  A    between atoms: _711  and  _712
REMARK  299  A    between atoms: _718  and  _720
REMARK  300  A    between atoms: _720  and  _721
REMARK  301  A    between atoms: _720  and  _723
REMARK  302  A    between atoms: _723  and  _724
REMARK  303  A    between atoms: _727  and  _729
REMARK  304  A    between atoms: _729  and  _730
REMARK  305  A    between atoms: _729  and  _732
REMARK  306  A    between atoms: _732  and  _733
REMARK  307  A    between atoms: _738  and  _739
REMARK  308  A    between atoms: _741  and  _743
REMARK  309  A    between atoms: _743  and  _744
REMARK  310  A    between atoms: _747  and  _749
REMARK  311  A    between atoms: _749  and  _750
REMARK  312  A    between atoms: _749  and  _752
REMARK  313  A    between atoms: _752  and  _753
REMARK  314  A    between atoms: _753  and  _754
REMARK  315  A    between atoms: _756  and  _758
REMARK  316  A    between atoms: _758  and  _759
REMARK  317  A    between atoms: _758  and  _761
REMARK  318  A    between atoms: _761  and  _762
REMARK  319  A    between atoms: _767  and  _769
REMARK  320  A    between atoms: _769  and  _770
REMARK  321  A    between atoms: _769  and  _772
REMARK  322  A    between atoms: _772  and  _773
REMARK  323  A    between atoms: _773  and  _774
REMARK  324  A    between atoms: _774  and  _775
REMARK  325  A    between atoms: _784  and  _786
REMARK  326  A    between atoms: _786  and  _787
REMARK  327  A    between atoms: _786  and  _789
REMARK  328  A    between atoms: _789  and  _790
REMARK  329  A    between atoms: _790  and  _791
REMARK  330  A    between atoms: _794  and  _796
REMARK  331  A    between atoms: _796  and  _797
REMARK  332  A    between atoms: _796  and  _799
REMARK  333  A    between atoms: _802  and  _804
REMARK  334  A    between atoms: _804  and  _805
REMARK  335  A    between atoms: _804  and  _807
REMARK  336  A    between atoms: _807  and  _808
REMARK                            x       y       z     vdW  Elec       q    Type
REMARK                         _______ _______ _______ _____ _____    ______ ____
ROOT
ATOM      1  O   HOH     1      16.905  11.100  -6.733  0.00  0.00    +0.000 OA
ENDROOT
TORSDOF 0
REMARK  Name = ../refined-set-2016/1i5r/1i5r_pocket.pdb
REMARK  336 active torsions:
REMARK  status: ('A' for Active; 'I' for Inactive)
REMARK    1  A    between atoms: _1  and  _3
REMARK    2  A    between atoms: _3  and  _4
REMARK    3  A    between atoms: _3  and  _6
REMARK    4  A    between atoms: _6  and  _7
REMARK    5  A    between atoms: _10  and  _12
REMARK    6  A    between atoms: _12  and  _13
REMARK    7  A    between atoms: _12  and  _15
REMARK    8  A    between atoms: _15  and  _16
REMARK    9  A    between atoms: _19  and  _21
REMARK   10  A    between atoms: _21  and  _22
REMARK   11  A    between atoms: _24  and  _26
REMARK   12  A    between atoms: _26  and  _27
REMARK   13  A    between atoms: _26  and  _29
REMARK   14  A    between atoms: _31  and  _33
REMARK   15  A    between atoms: _33  and  _34
REMARK   16  A    between atoms: _33  and  _36
REMARK   17  A    between atoms: _36  and  _37
REMARK   18  A    between atoms: _39  and  _41
REMARK   19  A    between atoms: _41  and  _42
REMARK   20  A    between atoms: _41  and  _44
REMARK   21  A    between atoms: _44  and  _45
REMARK   22  A    between atoms: _47  and  _49
REMARK   23  A    between atoms: _49  and  _50
REMARK   24  A    between atoms: _52  and  _54
REMARK   25  A    between atoms: _54  and  _55
REMARK   26  A    between atoms: _54  and  _57
REMARK   27  A    between atoms: _57  and  _58
REMARK   28  A    between atoms: _61  and  _63
REMARK   29  A    between atoms: _63  and  _64
REMARK   30  A    between atoms: _66  and  _68
REMARK   31  A    between atoms: _68  and  _69
REMARK   32  A    between atoms: _68  and  _71
REMARK   33  A    between atoms: _71  and  _72
REMARK   34  A    between atoms: _75  and  _77
REMARK   35  A    between atoms: _77  and  _78
REMARK   36  A    between atoms: _77  and  _80
REMARK   37  A    between atoms: _80  and  _81
REMARK   38  A    between atoms: _86  and  _88
REMARK   39  A    between atoms: _88  and  _89
REMARK   40  A    between atoms: _88  and  _91
REMARK   41  A    between atoms: _91  and  _92
REMARK   42  A    between atoms: _95  and  _97
REMARK   43  A    between atoms: _97  and  _98
REMARK   44  A    between atoms: _97  and  _100
REMARK   45  A    between atoms: _100  and  _101
REMARK   46  A    between atoms: _104  and  _106
REMARK   47  A    between atoms: _106  and  _107
REMARK   48  A    between atoms: _106  and  _109
REMARK   49  A    between atoms: _109  and  _110
REMARK   50  A    between atoms: _110  and  _111
REMARK   51  A    between atoms: _111  and  _112
REMARK   52  A    between atoms: _121  and  _123
REMARK   53  A    between atoms: _123  and  _124
REMARK   54  A    between atoms: _123  and  _126
REMARK   55  A    between atoms: _126  and  _127
REMARK   56  A    between atoms: _130  and  _132
REMARK   57  A    between atoms: _132  and  _133
REMARK   58  A    between atoms: _132  and  _135
REMARK   59  A    between atoms: _135  and  _136
REMARK   60  A    between atoms: _139  and  _141
REMARK   61  A    between atoms: _141  and  _142
REMARK   62  A    between atoms: _141  and  _144
REMARK   63  A    between atoms: _144  and  _145
REMARK   64  A    between atoms: _145  and  _146
REMARK   65  A    between atoms: _146  and  _147
REMARK   66  A    between atoms: _156  and  _158
REMARK   67  A    between atoms: _158  and  _159
REMARK   68  A    between atoms: _158  and  _161
REMARK   69  A    between atoms: _161  and  _162
REMARK   70  A    between atoms: _165  and  _167
REMARK   71  A    between atoms: _167  and  _168
REMARK   72  A    between atoms: _167  and  _170
REMARK   73  A    between atoms: _170  and  _171
REMARK   74  A    between atoms: _171  and  _172
REMARK   75  A    between atoms: _177  and  _179
REMARK   76  A    between atoms: _179  and  _180
REMARK   77  A    between atoms: _179  and  _182
REMARK   78  A    between atoms: _182  and  _183
REMARK   79  A    between atoms: _186  and  _188
REMARK   80  A    between atoms: _188  and  _189
REMARK   81  A    between atoms: _188  and  _191
REMARK   82  A    between atoms: _191  and  _192
REMARK   83  A    between atoms: _195  and  _197
REMARK   84  A    between atoms: _197  and  _198
REMARK   85  A    between atoms: _197  and  _200
REMARK   86  A    between atoms: _203  and  _205
REMARK   87  A    between atoms: _205  and  _206
REMARK   88  A    between atoms: _205  and  _208
REMARK   89  A    between atoms: _208  and  _209
REMARK   90  A    between atoms: _209  and  _210
REMARK   91  A    between atoms: _210  and  _211
REMARK   92  A    between atoms: _220  and  _222
REMARK   93  A    between atoms: _222  and  _223
REMARK   94  A    between atoms: _222  and  _225
REMARK   95  A    between atoms: _225  and  _226
REMARK   96  A    between atoms: _229  and  _231
REMARK   97  A    between atoms: _231  and  _232
REMARK   98  A    between atoms: _231  and  _234
REMARK   99  A    between atoms: _234  and  _235
REMARK  100  A    between atoms: _237  and  _239
REMARK  101  A    between atoms: _239  and  _240
REMARK  102  A    between atoms: _239  and  _242
REMARK  103  A    between atoms: _245  and  _247
REMARK  104  A    between atoms: _247  and  _248
REMARK  105  A    between atoms: _247  and  _250
REMARK  106  A    between atoms: _252  and  _254
REMARK  107  A    between atoms: _254  and  _255
REMARK  108  A    between atoms: _254  and  _257
REMARK  109  A    between atoms: _257  and  _258
REMARK  110  A    between atoms: _263  and  _265
REMARK  111  A    between atoms: _265  and  _266
REMARK  112  A    between atoms: _269  and  _271
REMARK  113  A    between atoms: _271  and  _272
REMARK  114  A    between atoms: _274  and  _276
REMARK  115  A    between atoms: _276  and  _277
REMARK  116  A    between atoms: _276  and  _279
REMARK  117  A    between atoms: _279  and  _280
REMARK  118  A    between atoms: _283  and  _285
REMARK  119  A    between atoms: _285  and  _286
REMARK  120  A    between atoms: _288  and  _290
REMARK  121  A    between atoms: _290  and  _291
REMARK  122  A    between atoms: _290  and  _293
REMARK  123  A    between atoms: _293  and  _294
REMARK  124  A    between atoms: _297  and  _299
REMARK  125  A    between atoms: _299  and  _300
REMARK  126  A    between atoms: _299  and  _302
REMARK  127  A    between atoms: _302  and  _303
REMARK  128  A    between atoms: _306  and  _308
REMARK  129  A    between atoms: _308  and  _309
REMARK  130  A    between atoms: _308  and  _311
REMARK  131  A    between atoms: _311  and  _312
REMARK  132  A    between atoms: _314  and  _316
REMARK  133  A    between atoms: _316  and  _317
REMARK  134  A    between atoms: _316  and  _319
REMARK  135  A    between atoms: _319  and  _320
REMARK  136  A    between atoms: _323  and  _325
REMARK  137  A    between atoms: _325  and  _326
REMARK  138  A    between atoms: _325  and  _328
REMARK  139  A    between atoms: _331  and  _333
REMARK  140  A    between atoms: _333  and  _334
REMARK  141  A    between atoms: _333  and  _336
REMARK  142  A    between atoms: _336  and  _337
REMARK  143  A    between atoms: _342  and  _344
REMARK  144  A    between atoms: _344  and  _345
REMARK  145  A    between atoms: _347  and  _349
REMARK  146  A    between atoms: _349  and  _350
REMARK  147  A    between atoms: _349  and  _352
REMARK  148  A    between atoms: _352  and  _353
REMARK  149  A    between atoms: _353  and  _354
REMARK  150  A    between atoms: _354  and  _355
REMARK  151  A    between atoms: _364  and  _366
REMARK  152  A    between atoms: _366  and  _367
REMARK  153  A    between atoms: _366  and  _369
REMARK  154  A    between atoms: _369  and  _370
REMARK  155  A    between atoms: _370  and  _371
REMARK  156  A    between atoms: _373  and  _375
REMARK  157  A    between atoms: _375  and  _376
REMARK  158  A    between atoms: _375  and  _378
REMARK  159  A    between atoms: _378  and  _379
REMARK  160  A    between atoms: _382  and  _384
REMARK  161  A    between atoms: _384  and  _385
REMARK  162  A    between atoms: _387  and  _389
REMARK  163  A    between atoms: _389  and  _390
REMARK  164  A    between atoms: _389  and  _392
REMARK  165  A    between atoms: _392  and  _393
REMARK  166  A    between atoms: _395  and  _397
REMARK  167  A    between atoms: _397  and  _398
REMARK  168  A    between atoms: _397  and  _400
REMARK  169  A    between atoms: _403  and  _405
REMARK  170  A    between atoms: _405  and  _406
REMARK  171  A    between atoms: _408  and  _410
REMARK  172  A    between atoms: _410  and  _411
REMARK  173  A    between atoms: _413  and  _415
REMARK  174  A    between atoms: _415  and  _416
REMARK  175  A    between atoms: _415  and  _418
REMARK  176  A    between atoms: _418  and  _419
REMARK  177  A    between atoms: _422  and  _424
REMARK  178  A    between atoms: _424  and  _425
REMARK  179  A    between atoms: _424  and  _427
REMARK  180  A    between atoms: _427  and  _428
REMARK  181  A    between atoms: _428  and  _429
REMARK  182  A    between atoms: _431  and  _433
REMARK  183  A    between atoms: _433  and  _434
REMARK  184  A    between atoms: _436  and  _438
REMARK  185  A    between atoms: _438  and  _439
REMARK  186  A    between atoms: _438  and  _441
REMARK  187  A    between atoms: _441  and  _442
REMARK  188  A    between atoms: _446  and  _447
REMARK  189  A    between atoms: _452  and  _454
REMARK  190  A    between atoms: _454  and  _455
REMARK  191  A    between atoms: _454  and  _457
REMARK  192  A    between atoms: _457  and  _458
REMARK  193  A    between atoms: _463  and  _465
REMARK  194  A    between atoms: _465  and  _466
REMARK  195  A    between atoms: _465  and  _468
REMARK  196  A    between atoms: _468  and  _469
REMARK  197  A    between atoms: _474  and  _475
REMARK  198  A    between atoms: _477  and  _479
REMARK  199  A    between atoms: _479  and  _480
REMARK  200  A    between atoms: _479  and  _482
REMARK  201  A    between atoms: _484  and  _486
REMARK  202  A    between atoms: _486  and  _487
REMARK  203  A    between atoms: _486  and  _489
REMARK  204  A    between atoms: _489  and  _490
REMARK  205  A    between atoms: _490  and  _491
REMARK  206  A    between atoms: _491  and  _492
REMARK  207  A    between atoms: _492  and  _493
REMARK  208  A    between atoms: _497  and  _499
REMARK  209  A    between atoms: _499  and  _500
REMARK  210  A    between atoms: _499  and  _502
REMARK  211  A    between atoms: _502  and  _503
REMARK  212  A    between atoms: _503  and  _504
REMARK  213  A    between atoms: _507  and  _509
REMARK  214  A    between atoms: _509  and  _510
REMARK  215  A    between atoms: _509  and  _512
REMARK  216  A    between atoms: _514  and  _516
REMARK  217  A    between atoms: _516  and  _517
REMARK  218  A    between atoms: _520  and  _521
REMARK  219  A    between atoms: _526  and  _528
REMARK  220  A    between atoms: _528  and  _529
REMARK  221  A    between atoms: _528  and  _531
REMARK  222  A    between atoms: _534  and  _536
REMARK  223  A    between atoms: _536  and  _537
REMARK  224  A    between atoms: _536  and  _539
REMARK  225  A    between atoms: _539  and  _540
REMARK  226  A    between atoms: _543  and  _545
REMARK  227  A    between atoms: _545  and  _546
REMARK  228  A    between atoms: _545  and  _548
REMARK  229  A    between atoms: _548  and  _549
REMARK  230  A    between atoms: _555  and  _557
REMARK  231  A    between atoms: _557  and  _558
REMARK  232  A    between atoms: _557  and  _560
REMARK  233  A    between atoms: _560  and  _561
REMARK  234  A    between atoms: _561  and  _562
REMARK  235  A    between atoms: _564  and  _566
REMARK  236  A    between atoms: _566  and  _567
REMARK  237  A    between atoms: _566  and  _569
REMARK  238  A    between atoms: _569  and  _570
REMARK  239  A    between atoms: _570  and  _571
REMARK  240  A    between atoms: _574  and  _576
REMARK  241  A    between atoms: _576  and  _577
REMARK  242  A    between atoms: _576  and  _579
REMARK  243  A    between atoms: _579  and  _580
REMARK  244  A    between atoms: _580  and  _581
REMARK  245  A    between atoms: _581  and  _582
REMARK  246  A    between atoms: _582  and  _583
REMARK  247  A    between atoms: _587  and  _589
REMARK  248  A    between atoms: _589  and  _590
REMARK  249  A    between atoms: _589  and  _592
REMARK  250  A    between atoms: _592  and  _593
REMARK  251  A    between atoms: _598  and  _599
REMARK  252  A    between atoms: _601  and  _603
REMARK  253  A    between atoms: _603  and  _604
REMARK  254  A    between atoms: _603  and  _606
REMARK  255  A    between atoms: _606  and  _607
REMARK  256  A    between atoms: _610  and  _612
REMARK  257  A    between atoms: _612  and  _613
REMARK  258  A    between atoms: _612  and  _615
REMARK  259  A    between atoms: _615  and  _616
REMARK  260  A    between atoms: _621  and  _623
REMARK  261  A    between atoms: _623  and  _624
REMARK  262  A    between atoms: _623  and  _626
REMARK  263  A    between atoms: _626  and  _627
REMARK  264  A    between atoms: _629  and  _631
REMARK  265  A    between atoms: _631  and  _632
REMARK  266  A    between atoms: _631  and  _634
REMARK  267  A    between atoms: _634  and  _635
REMARK  268  A    between atoms: _635  and  _636
REMARK  269  A    between atoms: _636  and  _637
REMARK  270  A    between atoms: _637  and  _638
REMARK  271  A    between atoms: _642  and  _644
REMARK  272  A    between atoms: _644  and  _645
REMARK  273  A    between atoms: _644  and  _647
REMARK  274  A    between atoms: _647  and  _648
REMARK  275  A    between atoms: _648  and  _649
REMARK  276  A    between atoms: _654  and  _656
REMARK  277  A    between atoms: _656  and  _657
REMARK  278  A    between atoms: _656  and  _659
REMARK  279  A    between atoms: _662  and  _664
REMARK  280  A    between atoms: _664  and  _665
REMARK  281  A    between atoms: _664  and  _667
REMARK  282  A    between atoms: _667  and  _668
REMARK  283  A    between atoms: _674  and  _676
REMARK  284  A    between atoms: _676  and  _677
REMARK  285  A    between atoms: _680  and  _682
REMARK  286  A    between atoms: _682  and  _683
REMARK  287  A    between atoms: _682  and  _685
REMARK  288  A    between atoms: _685  and  _686
REMARK  289  A    between atoms: _689  and  _691
REMARK  290  A    between atoms: _691  and  _692
REMARK  291  A    between atoms: _691  and  _694
REMARK  292  A    between atoms: _694  and  _695
REMARK  293  A    between atoms: _695  and  _696
REMARK  294  A    between atoms: _696  and  _697
REMARK  295  A    between atoms: _706  and  _708
REMARK  296  A    between atoms: _708  and  _709
REMARK  297  A    between atoms: _708  and  _711
REMARK  298  A    between atoms: _711  and  _712
REMARK  299  A    between atoms: _718  and  _720
REMARK  300  A    between atoms: _720  and  _721
REMARK  301  A    between atoms: _720  and  _723
REMARK  302  A    between atoms: _723  and  _724
REMARK  303  A    between atoms: _727  and  _729
REMARK  304  A    between atoms: _729  and  _730
REMARK  305  A    between atoms: _729  and  _732
REMARK  306  A    between atoms: _732  and  _733
REMARK  307  A    between atoms: _738  and  _739
REMARK  308  A    between atoms: _741  and  _743
REMARK  309  A    between atoms: _743  and  _744
REMARK  310  A    between atoms: _747  and  _749
REMARK  311  A    between atoms: _749  and  _750
REMARK  312  A    between atoms: _749  and  _752
REMARK  313  A    between atoms: _752  and  _753
REMARK  314  A    between atoms: _753  and  _754
REMARK  315  A    between atoms: _756  and  _758
REMARK  316  A    between atoms: _758  and  _759
REMARK  317  A    between atoms: _758  and  _761
REMARK  318  A    between atoms: _761  and  _762
REMARK  319  A    between atoms: _767  and  _769
REMARK  320  A    between atoms: _769  and  _770
REMARK  321  A    between atoms: _769  and  _772
REMARK  322  A    between atoms: _772  and  _773
REMARK  323  A    between atoms: _773  and  _774
REMARK  324  A    between atoms: _774  and  _775
REMARK  325  A    between atoms: _784  and  _786
REMARK  326  A    between atoms: _786  and  _787
REMARK  327  A    between atoms: _786  and  _789
REMARK  328  A    between atoms: _789  and  _790
REMARK  329  A    between atoms: _790  and  _791
REMARK  330  A    between atoms: _794  and  _796
REMARK  331  A    between atoms: _796  and  _797
REMARK  332  A    between atoms: _796  and  _799
REMARK  333  A    between atoms: _802  and  _804
REMARK  334  A    between atoms: _804  and  _805
REMARK  335  A    between atoms: _804  and  _807
REMARK  336  A    between atoms: _807  and  _808
REMARK                            x       y       z     vdW  Elec       q    Type
REMARK                         _______ _______ _______ _____ _____    ______ ____
ROOT
ATOM      1  O   HOH     1      13.403   4.512  -3.454  0.00  0.00    +0.000 OA
ENDROOT
TORSDOF 0
REMARK  Name = ../refined-set-2016/1i5r/1i5r_pocket.pdb
REMARK  336 active torsions:
REMARK  status: ('A' for Active; 'I' for Inactive)
REMARK    1  A    between atoms: _1  and  _3
REMARK    2  A    between atoms: _3  and  _4
REMARK    3  A    between atoms: _3  and  _6
REMARK    4  A    between atoms: _6  and  _7
REMARK    5  A    between atoms: _10  and  _12
REMARK    6  A    between atoms: _12  and  _13
REMARK    7  A    between atoms: _12  and  _15
REMARK    8  A    between atoms: _15  and  _16
REMARK    9  A    between atoms: _19  and  _21
REMARK   10  A    between atoms: _21  and  _22
REMARK   11  A    between atoms: _24  and  _26
REMARK   12  A    between atoms: _26  and  _27
REMARK   13  A    between atoms: _26  and  _29
REMARK   14  A    between atoms: _31  and  _33
REMARK   15  A    between atoms: _33  and  _34
REMARK   16  A    between atoms: _33  and  _36
REMARK   17  A    between atoms: _36  and  _37
REMARK   18  A    between atoms: _39  and  _41
REMARK   19  A    between atoms: _41  and  _42
REMARK   20  A    between atoms: _41  and  _44
REMARK   21  A    between atoms: _44  and  _45
REMARK   22  A    between atoms: _47  and  _49
REMARK   23  A    between atoms: _49  and  _50
REMARK   24  A    between atoms: _52  and  _54
REMARK   25  A    between atoms: _54  and  _55
REMARK   26  A    between atoms: _54  and  _57
REMARK   27  A    between atoms: _57  and  _58
REMARK   28  A    between atoms: _61  and  _63
REMARK   29  A    between atoms: _63  and  _64
REMARK   30  A    between atoms: _66  and  _68
REMARK   31  A    between atoms: _68  and  _69
REMARK   32  A    between atoms: _68  and  _71
REMARK   33  A    between atoms: _71  and  _72
REMARK   34  A    between atoms: _75  and  _77
REMARK   35  A    between atoms: _77  and  _78
REMARK   36  A    between atoms: _77  and  _80
REMARK   37  A    between atoms: _80  and  _81
REMARK   38  A    between atoms: _86  and  _88
REMARK   39  A    between atoms: _88  and  _89
REMARK   40  A    between atoms: _88  and  _91
REMARK   41  A    between atoms: _91  and  _92
REMARK   42  A    between atoms: _95  and  _97
REMARK   43  A    between atoms: _97  and  _98
REMARK   44  A    between atoms: _97  and  _100
REMARK   45  A    between atoms: _100  and  _101
REMARK   46  A    between atoms: _104  and  _106
REMARK   47  A    between atoms: _106  and  _107
REMARK   48  A    between atoms: _106  and  _109
REMARK   49  A    between atoms: _109  and  _110
REMARK   50  A    between atoms: _110  and  _111
REMARK   51  A    between atoms: _111  and  _112
REMARK   52  A    between atoms: _121  and  _123
REMARK   53  A    between atoms: _123  and  _124
REMARK   54  A    between atoms: _123  and  _126
REMARK   55  A    between atoms: _126  and  _127
REMARK   56  A    between atoms: _130  and  _132
REMARK   57  A    between atoms: _132  and  _133
REMARK   58  A    between atoms: _132  and  _135
REMARK   59  A    between atoms: _135  and  _136
REMARK   60  A    between atoms: _139  and  _141
REMARK   61  A    between atoms: _141  and  _142
REMARK   62  A    between atoms: _141  and  _144
REMARK   63  A    between atoms: _144  and  _145
REMARK   64  A    between atoms: _145  and  _146
REMARK   65  A    between atoms: _146  and  _147
REMARK   66  A    between atoms: _156  and  _158
REMARK   67  A    between atoms: _158  and  _159
REMARK   68  A    between atoms: _158  and  _161
REMARK   69  A    between atoms: _161  and  _162
REMARK   70  A    between atoms: _165  and  _167
REMARK   71  A    between atoms: _167  and  _168
REMARK   72  A    between atoms: _167  and  _170
REMARK   73  A    between atoms: _170  and  _171
REMARK   74  A    between atoms: _171  and  _172
REMARK   75  A    between atoms: _177  and  _179
REMARK   76  A    between atoms: _179  and  _180
REMARK   77  A    between atoms: _179  and  _182
REMARK   78  A    between atoms: _182  and  _183
REMARK   79  A    between atoms: _186  and  _188
REMARK   80  A    between atoms: _188  and  _189
REMARK   81  A    between atoms: _188  and  _191
REMARK   82  A    between atoms: _191  and  _192
REMARK   83  A    between atoms: _195  and  _197
REMARK   84  A    between atoms: _197  and  _198
REMARK   85  A    between atoms: _197  and  _200
REMARK   86  A    between atoms: _203  and  _205
REMARK   87  A    between atoms: _205  and  _206
REMARK   88  A    between atoms: _205  and  _208
REMARK   89  A    between atoms: _208  and  _209
REMARK   90  A    between atoms: _209  and  _210
REMARK   91  A    between atoms: _210  and  _211
REMARK   92  A    between atoms: _220  and  _222
REMARK   93  A    between atoms: _222  and  _223
REMARK   94  A    between atoms: _222  and  _225
REMARK   95  A    between atoms: _225  and  _226
REMARK   96  A    between atoms: _229  and  _231
REMARK   97  A    between atoms: _231  and  _232
REMARK   98  A    between atoms: _231  and  _234
REMARK   99  A    between atoms: _234  and  _235
REMARK  100  A    between atoms: _237  and  _239
REMARK  101  A    between atoms: _239  and  _240
REMARK  102  A    between atoms: _239  and  _242
REMARK  103  A    between atoms: _245  and  _247
REMARK  104  A    between atoms: _247  and  _248
REMARK  105  A    between atoms: _247  and  _250
REMARK  106  A    between atoms: _252  and  _254
REMARK  107  A    between atoms: _254  and  _255
REMARK  108  A    between atoms: _254  and  _257
REMARK  109  A    between atoms: _257  and  _258
REMARK  110  A    between atoms: _263  and  _265
REMARK  111  A    between atoms: _265  and  _266
REMARK  112  A    between atoms: _269  and  _271
REMARK  113  A    between atoms: _271  and  _272
REMARK  114  A    between atoms: _274  and  _276
REMARK  115  A    between atoms: _276  and  _277
REMARK  116  A    between atoms: _276  and  _279
REMARK  117  A    between atoms: _279  and  _280
REMARK  118  A    between atoms: _283  and  _285
REMARK  119  A    between atoms: _285  and  _286
REMARK  120  A    between atoms: _288  and  _290
REMARK  121  A    between atoms: _290  and  _291
REMARK  122  A    between atoms: _290  and  _293
REMARK  123  A    between atoms: _293  and  _294
REMARK  124  A    between atoms: _297  and  _299
REMARK  125  A    between atoms: _299  and  _300
REMARK  126  A    between atoms: _299  and  _302
REMARK  127  A    between atoms: _302  and  _303
REMARK  128  A    between atoms: _306  and  _308
REMARK  129  A    between atoms: _308  and  _309
REMARK  130  A    between atoms: _308  and  _311
REMARK  131  A    between atoms: _311  and  _312
REMARK  132  A    between atoms: _314  and  _316
REMARK  133  A    between atoms: _316  and  _317
REMARK  134  A    between atoms: _316  and  _319
REMARK  135  A    between atoms: _319  and  _320
REMARK  136  A    between atoms: _323  and  _325
REMARK  137  A    between atoms: _325  and  _326
REMARK  138  A    between atoms: _325  and  _328
REMARK  139  A    between atoms: _331  and  _333
REMARK  140  A    between atoms: _333  and  _334
REMARK  141  A    between atoms: _333  and  _336
REMARK  142  A    between atoms: _336  and  _337
REMARK  143  A    between atoms: _342  and  _344
REMARK  144  A    between atoms: _344  and  _345
REMARK  145  A    between atoms: _347  and  _349
REMARK  146  A    between atoms: _349  and  _350
REMARK  147  A    between atoms: _349  and  _352
REMARK  148  A    between atoms: _352  and  _353
REMARK  149  A    between atoms: _353  and  _354
REMARK  150  A    between atoms: _354  and  _355
REMARK  151  A    between atoms: _364  and  _366
REMARK  152  A    between atoms: _366  and  _367
REMARK  153  A    between atoms: _366  and  _369
REMARK  154  A    between atoms: _369  and  _370
REMARK  155  A    between atoms: _370  and  _371
REMARK  156  A    between atoms: _373  and  _375
REMARK  157  A    between atoms: _375  and  _376
REMARK  158  A    between atoms: _375  and  _378
REMARK  159  A    between atoms: _378  and  _379
REMARK  160  A    between atoms: _382  and  _384
REMARK  161  A    between atoms: _384  and  _385
REMARK  162  A    between atoms: _387  and  _389
REMARK  163  A    between atoms: _389  and  _390
REMARK  164  A    between atoms: _389  and  _392
REMARK  165  A    between atoms: _392  and  _393
REMARK  166  A    between atoms: _395  and  _397
REMARK  167  A    between atoms: _397  and  _398
REMARK  168  A    between atoms: _397  and  _400
REMARK  169  A    between atoms: _403  and  _405
REMARK  170  A    between atoms: _405  and  _406
REMARK  171  A    between atoms: _408  and  _410
REMARK  172  A    between atoms: _410  and  _411
REMARK  173  A    between atoms: _413  and  _415
REMARK  174  A    between atoms: _415  and  _416
REMARK  175  A    between atoms: _415  and  _418
REMARK  176  A    between atoms: _418  and  _419
REMARK  177  A    between atoms: _422  and  _424
REMARK  178  A    between atoms: _424  and  _425
REMARK  179  A    between atoms: _424  and  _427
REMARK  180  A    between atoms: _427  and  _428
REMARK  181  A    between atoms: _428  and  _429
REMARK  182  A    between atoms: _431  and  _433
REMARK  183  A    between atoms: _433  and  _434
REMARK  184  A    between atoms: _436  and  _438
REMARK  185  A    between atoms: _438  and  _439
REMARK  186  A    between atoms: _438  and  _441
REMARK  187  A    between atoms: _441  and  _442
REMARK  188  A    between atoms: _446  and  _447
REMARK  189  A    between atoms: _452  and  _454
REMARK  190  A    between atoms: _454  and  _455
REMARK  191  A    between atoms: _454  and  _457
REMARK  192  A    between atoms: _457  and  _458
REMARK  193  A    between atoms: _463  and  _465
REMARK  194  A    between atoms: _465  and  _466
REMARK  195  A    between atoms: _465  and  _468
REMARK  196  A    between atoms: _468  and  _469
REMARK  197  A    between atoms: _474  and  _475
REMARK  198  A    between atoms: _477  and  _479
REMARK  199  A    between atoms: _479  and  _480
REMARK  200  A    between atoms: _479  and  _482
REMARK  201  A    between atoms: _484  and  _486
REMARK  202  A    between atoms: _486  and  _487
REMARK  203  A    between atoms: _486  and  _489
REMARK  204  A    between atoms: _489  and  _490
REMARK  205  A    between atoms: _490  and  _491
REMARK  206  A    between atoms: _491  and  _492
REMARK  207  A    between atoms: _492  and  _493
REMARK  208  A    between atoms: _497  and  _499
REMARK  209  A    between atoms: _499  and  _500
REMARK  210  A    between atoms: _499  and  _502
REMARK  211  A    between atoms: _502  and  _503
REMARK  212  A    between atoms: _503  and  _504
REMARK  213  A    between atoms: _507  and  _509
REMARK  214  A    between atoms: _509  and  _510
REMARK  215  A    between atoms: _509  and  _512
REMARK  216  A    between atoms: _514  and  _516
REMARK  217  A    between atoms: _516  and  _517
REMARK  218  A    between atoms: _520  and  _521
REMARK  219  A    between atoms: _526  and  _528
REMARK  220  A    between atoms: _528  and  _529
REMARK  221  A    between atoms: _528  and  _531
REMARK  222  A    between atoms: _534  and  _536
REMARK  223  A    between atoms: _536  and  _537
REMARK  224  A    between atoms: _536  and  _539
REMARK  225  A    between atoms: _539  and  _540
REMARK  226  A    between atoms: _543  and  _545
REMARK  227  A    between atoms: _545  and  _546
REMARK  228  A    between atoms: _545  and  _548
REMARK  229  A    between atoms: _548  and  _549
REMARK  230  A    between atoms: _555  and  _557
REMARK  231  A    between atoms: _557  and  _558
REMARK  232  A    between atoms: _557  and  _560
REMARK  233  A    between atoms: _560  and  _561
REMARK  234  A    between atoms: _561  and  _562
REMARK  235  A    between atoms: _564  and  _566
REMARK  236  A    between atoms: _566  and  _567
REMARK  237  A    between atoms: _566  and  _569
REMARK  238  A    between atoms: _569  and  _570
REMARK  239  A    between atoms: _570  and  _571
REMARK  240  A    between atoms: _574  and  _576
REMARK  241  A    between atoms: _576  and  _577
REMARK  242  A    between atoms: _576  and  _579
REMARK  243  A    between atoms: _579  and  _580
REMARK  244  A    between atoms: _580  and  _581
REMARK  245  A    between atoms: _581  and  _582
REMARK  246  A    between atoms: _582  and  _583
REMARK  247  A    between atoms: _587  and  _589
REMARK  248  A    between atoms: _589  and  _590
REMARK  249  A    between atoms: _589  and  _592
REMARK  250  A    between atoms: _592  and  _593
REMARK  251  A    between atoms: _598  and  _599
REMARK  252  A    between atoms: _601  and  _603
REMARK  253  A    between atoms: _603  and  _604
REMARK  254  A    between atoms: _603  and  _606
REMARK  255  A    between atoms: _606  and  _607
REMARK  256  A    between atoms: _610  and  _612
REMARK  257  A    between atoms: _612  and  _613
REMARK  258  A    between atoms: _612  and  _615
REMARK  259  A    between atoms: _615  and  _616
REMARK  260  A    between atoms: _621  and  _623
REMARK  261  A    between atoms: _623  and  _624
REMARK  262  A    between atoms: _623  and  _626
REMARK  263  A    between atoms: _626  and  _627
REMARK  264  A    between atoms: _629  and  _631
REMARK  265  A    between atoms: _631  and  _632
REMARK  266  A    between atoms: _631  and  _634
REMARK  267  A    between atoms: _634  and  _635
REMARK  268  A    between atoms: _635  and  _636
REMARK  269  A    between atoms: _636  and  _637
REMARK  270  A    between atoms: _637  and  _638
REMARK  271  A    between atoms: _642  and  _644
REMARK  272  A    between atoms: _644  and  _645
REMARK  273  A    between atoms: _644  and  _647
REMARK  274  A    between atoms: _647  and  _648
REMARK  275  A    between atoms: _648  and  _649
REMARK  276  A    between atoms: _654  and  _656
REMARK  277  A    between atoms: _656  and  _657
REMARK  278  A    between atoms: _656  and  _659
REMARK  279  A    between atoms: _662  and  _664
REMARK  280  A    between atoms: _664  and  _665
REMARK  281  A    between atoms: _664  and  _667
REMARK  282  A    between atoms: _667  and  _668
REMARK  283  A    between atoms: _674  and  _676
REMARK  284  A    between atoms: _676  and  _677
REMARK  285  A    between atoms: _680  and  _682
REMARK  286  A    between atoms: _682  and  _683
REMARK  287  A    between atoms: _682  and  _685
REMARK  288  A    between atoms: _685  and  _686
REMARK  289  A    between atoms: _689  and  _691
REMARK  290  A    between atoms: _691  and  _692
REMARK  291  A    between atoms: _691  and  _694
REMARK  292  A    between atoms: _694  and  _695
REMARK  293  A    between atoms: _695  and  _696
REMARK  294  A    between atoms: _696  and  _697
REMARK  295  A    between atoms: _706  and  _708
REMARK  296  A    between atoms: _708  and  _709
REMARK  297  A    between atoms: _708  and  _711
REMARK  298  A    between atoms: _711  and  _712
REMARK  299  A    between atoms: _718  and  _720
REMARK  300  A    between atoms: _720  and  _721
REMARK  301  A    between atoms: _720  and  _723
REMARK  302  A    between atoms: _723  and  _724
REMARK  303  A    between atoms: _727  and  _729
REMARK  304  A    between atoms: _729  and  _730
REMARK  305  A    between atoms: _729  and  _732
REMARK  306  A    between atoms: _732  and  _733
REMARK  307  A    between atoms: _738  and  _739
REMARK  308  A    between atoms: _741  and  _743
REMARK  309  A    between atoms: _743  and  _744
REMARK  310  A    between atoms: _747  and  _749
REMARK  311  A    between atoms: _749  and  _750
REMARK  312  A    between atoms: _749  and  _752
REMARK  313  A    between atoms: _752  and  _753
REMARK  314  A    between atoms: _753  and  _754
REMARK  315  A    between atoms: _756  and  _758
REMARK  316  A    between atoms: _758  and  _759
REMARK  317  A    between atoms: _758  and  _761
REMARK  318  A    between atoms: _761  and  _762
REMARK  319  A    between atoms: _767  and  _769
REMARK  320  A    between atoms: _769  and  _770
REMARK  321  A    between atoms: _769  and  _772
REMARK  322  A    between atoms: _772  and  _773
REMARK  323  A    between atoms: _773  and  _774
REMARK  324  A    between atoms: _774  and  _775
REMARK  325  A    between atoms: _784  and  _786
REMARK  326  A    between atoms: _786  and  _787
REMARK  327  A    between atoms: _786  and  _789
REMARK  328  A    between atoms: _789  and  _790
REMARK  329  A    between atoms: _790  and  _791
REMARK  330  A    between atoms: _794  and  _796
REMARK  331  A    between atoms: _796  and  _797
REMARK  332  A    between atoms: _796  and  _799
REMARK  333  A    between atoms: _802  and  _804
REMARK  334  A    between atoms: _804  and  _805
REMARK  335  A    between atoms: _804  and  _807
REMARK  336  A    between atoms: _807  and  _808
REMARK                            x       y       z     vdW  Elec       q    Type
REMARK                         _______ _______ _______ _____ _____    ______ ____
ROOT
ATOM      1  O   HOH     1       5.884 -12.489  -1.668  0.00  0.00    +0.000 OA
ENDROOT
TORSDOF 0
REMARK  Name = ../refined-set-2016/1i5r/1i5r_pocket.pdb
REMARK  336 active torsions:
REMARK  status: ('A' for Active; 'I' for Inactive)
REMARK    1  A    between atoms: _1  and  _3
REMARK    2  A    between atoms: _3  and  _4
REMARK    3  A    between atoms: _3  and  _6
REMARK    4  A    between atoms: _6  and  _7
REMARK    5  A    between atoms: _10  and  _12
REMARK    6  A    between atoms: _12  and  _13
REMARK    7  A    between atoms: _12  and  _15
REMARK    8  A    between atoms: _15  and  _16
REMARK    9  A    between atoms: _19  and  _21
REMARK   10  A    between atoms: _21  and  _22
REMARK   11  A    between atoms: _24  and  _26
REMARK   12  A    between atoms: _26  and  _27
REMARK   13  A    between atoms: _26  and  _29
REMARK   14  A    between atoms: _31  and  _33
REMARK   15  A    between atoms: _33  and  _34
REMARK   16  A    between atoms: _33  and  _36
REMARK   17  A    between atoms: _36  and  _37
REMARK   18  A    between atoms: _39  and  _41
REMARK   19  A    between atoms: _41  and  _42
REMARK   20  A    between atoms: _41  and  _44
REMARK   21  A    between atoms: _44  and  _45
REMARK   22  A    between atoms: _47  and  _49
REMARK   23  A    between atoms: _49  and  _50
REMARK   24  A    between atoms: _52  and  _54
REMARK   25  A    between atoms: _54  and  _55
REMARK   26  A    between atoms: _54  and  _57
REMARK   27  A    between atoms: _57  and  _58
REMARK   28  A    between atoms: _61  and  _63
REMARK   29  A    between atoms: _63  and  _64
REMARK   30  A    between atoms: _66  and  _68
REMARK   31  A    between atoms: _68  and  _69
REMARK   32  A    between atoms: _68  and  _71
REMARK   33  A    between atoms: _71  and  _72
REMARK   34  A    between atoms: _75  and  _77
REMARK   35  A    between atoms: _77  and  _78
REMARK   36  A    between atoms: _77  and  _80
REMARK   37  A    between atoms: _80  and  _81
REMARK   38  A    between atoms: _86  and  _88
REMARK   39  A    between atoms: _88  and  _89
REMARK   40  A    between atoms: _88  and  _91
REMARK   41  A    between atoms: _91  and  _92
REMARK   42  A    between atoms: _95  and  _97
REMARK   43  A    between atoms: _97  and  _98
REMARK   44  A    between atoms: _97  and  _100
REMARK   45  A    between atoms: _100  and  _101
REMARK   46  A    between atoms: _104  and  _106
REMARK   47  A    between atoms: _106  and  _107
REMARK   48  A    between atoms: _106  and  _109
REMARK   49  A    between atoms: _109  and  _110
REMARK   50  A    between atoms: _110  and  _111
REMARK   51  A    between atoms: _111  and  _112
REMARK   52  A    between atoms: _121  and  _123
REMARK   53  A    between atoms: _123  and  _124
REMARK   54  A    between atoms: _123  and  _126
REMARK   55  A    between atoms: _126  and  _127
REMARK   56  A    between atoms: _130  and  _132
REMARK   57  A    between atoms: _132  and  _133
REMARK   58  A    between atoms: _132  and  _135
REMARK   59  A    between atoms: _135  and  _136
REMARK   60  A    between atoms: _139  and  _141
REMARK   61  A    between atoms: _141  and  _142
REMARK   62  A    between atoms: _141  and  _144
REMARK   63  A    between atoms: _144  and  _145
REMARK   64  A    between atoms: _145  and  _146
REMARK   65  A    between atoms: _146  and  _147
REMARK   66  A    between atoms: _156  and  _158
REMARK   67  A    between atoms: _158  and  _159
REMARK   68  A    between atoms: _158  and  _161
REMARK   69  A    between atoms: _161  and  _162
REMARK   70  A    between atoms: _165  and  _167
REMARK   71  A    between atoms: _167  and  _168
REMARK   72  A    between atoms: _167  and  _170
REMARK   73  A    between atoms: _170  and  _171
REMARK   74  A    between atoms: _171  and  _172
REMARK   75  A    between atoms: _177  and  _179
REMARK   76  A    between atoms: _179  and  _180
REMARK   77  A    between atoms: _179  and  _182
REMARK   78  A    between atoms: _182  and  _183
REMARK   79  A    between atoms: _186  and  _188
REMARK   80  A    between atoms: _188  and  _189
REMARK   81  A    between atoms: _188  and  _191
REMARK   82  A    between atoms: _191  and  _192
REMARK   83  A    between atoms: _195  and  _197
REMARK   84  A    between atoms: _197  and  _198
REMARK   85  A    between atoms: _197  and  _200
REMARK   86  A    between atoms: _203  and  _205
REMARK   87  A    between atoms: _205  and  _206
REMARK   88  A    between atoms: _205  and  _208
REMARK   89  A    between atoms: _208  and  _209
REMARK   90  A    between atoms: _209  and  _210
REMARK   91  A    between atoms: _210  and  _211
REMARK   92  A    between atoms: _220  and  _222
REMARK   93  A    between atoms: _222  and  _223
REMARK   94  A    between atoms: _222  and  _225
REMARK   95  A    between atoms: _225  and  _226
REMARK   96  A    between atoms: _229  and  _231
REMARK   97  A    between atoms: _231  and  _232
REMARK   98  A    between atoms: _231  and  _234
REMARK   99  A    between atoms: _234  and  _235
REMARK  100  A    between atoms: _237  and  _239
REMARK  101  A    between atoms: _239  and  _240
REMARK  102  A    between atoms: _239  and  _242
REMARK  103  A    between atoms: _245  and  _247
REMARK  104  A    between atoms: _247  and  _248
REMARK  105  A    between atoms: _247  and  _250
REMARK  106  A    between atoms: _252  and  _254
REMARK  107  A    between atoms: _254  and  _255
REMARK  108  A    between atoms: _254  and  _257
REMARK  109  A    between atoms: _257  and  _258
REMARK  110  A    between atoms: _263  and  _265
REMARK  111  A    between atoms: _265  and  _266
REMARK  112  A    between atoms: _269  and  _271
REMARK  113  A    between atoms: _271  and  _272
REMARK  114  A    between atoms: _274  and  _276
REMARK  115  A    between atoms: _276  and  _277
REMARK  116  A    between atoms: _276  and  _279
REMARK  117  A    between atoms: _279  and  _280
REMARK  118  A    between atoms: _283  and  _285
REMARK  119  A    between atoms: _285  and  _286
REMARK  120  A    between atoms: _288  and  _290
REMARK  121  A    between atoms: _290  and  _291
REMARK  122  A    between atoms: _290  and  _293
REMARK  123  A    between atoms: _293  and  _294
REMARK  124  A    between atoms: _297  and  _299
REMARK  125  A    between atoms: _299  and  _300
REMARK  126  A    between atoms: _299  and  _302
REMARK  127  A    between atoms: _302  and  _303
REMARK  128  A    between atoms: _306  and  _308
REMARK  129  A    between atoms: _308  and  _309
REMARK  130  A    between atoms: _308  and  _311
REMARK  131  A    between atoms: _311  and  _312
REMARK  132  A    between atoms: _314  and  _316
REMARK  133  A    between atoms: _316  and  _317
REMARK  134  A    between atoms: _316  and  _319
REMARK  135  A    between atoms: _319  and  _320
REMARK  136  A    between atoms: _323  and  _325
REMARK  137  A    between atoms: _325  and  _326
REMARK  138  A    between atoms: _325  and  _328
REMARK  139  A    between atoms: _331  and  _333
REMARK  140  A    between atoms: _333  and  _334
REMARK  141  A    between atoms: _333  and  _336
REMARK  142  A    between atoms: _336  and  _337
REMARK  143  A    between atoms: _342  and  _344
REMARK  144  A    between atoms: _344  and  _345
REMARK  145  A    between atoms: _347  and  _349
REMARK  146  A    between atoms: _349  and  _350
REMARK  147  A    between atoms: _349  and  _352
REMARK  148  A    between atoms: _352  and  _353
REMARK  149  A    between atoms: _353  and  _354
REMARK  150  A    between atoms: _354  and  _355
REMARK  151  A    between atoms: _364  and  _366
REMARK  152  A    between atoms: _366  and  _367
REMARK  153  A    between atoms: _366  and  _369
REMARK  154  A    between atoms: _369  and  _370
REMARK  155  A    between atoms: _370  and  _371
REMARK  156  A    between atoms: _373  and  _375
REMARK  157  A    between atoms: _375  and  _376
REMARK  158  A    between atoms: _375  and  _378
REMARK  159  A    between atoms: _378  and  _379
REMARK  160  A    between atoms: _382  and  _384
REMARK  161  A    between atoms: _384  and  _385
REMARK  162  A    between atoms: _387  and  _389
REMARK  163  A    between atoms: _389  and  _390
REMARK  164  A    between atoms: _389  and  _392
REMARK  165  A    between atoms: _392  and  _393
REMARK  166  A    between atoms: _395  and  _397
REMARK  167  A    between atoms: _397  and  _398
REMARK  168  A    between atoms: _397  and  _400
REMARK  169  A    between atoms: _403  and  _405
REMARK  170  A    between atoms: _405  and  _406
REMARK  171  A    between atoms: _408  and  _410
REMARK  172  A    between atoms: _410  and  _411
REMARK  173  A    between atoms: _413  and  _415
REMARK  174  A    between atoms: _415  and  _416
REMARK  175  A    between atoms: _415  and  _418
REMARK  176  A    between atoms: _418  and  _419
REMARK  177  A    between atoms: _422  and  _424
REMARK  178  A    between atoms: _424  and  _425
REMARK  179  A    between atoms: _424  and  _427
REMARK  180  A    between atoms: _427  and  _428
REMARK  181  A    between atoms: _428  and  _429
REMARK  182  A    between atoms: _431  and  _433
REMARK  183  A    between atoms: _433  and  _434
REMARK  184  A    between atoms: _436  and  _438
REMARK  185  A    between atoms: _438  and  _439
REMARK  186  A    between atoms: _438  and  _441
REMARK  187  A    between atoms: _441  and  _442
REMARK  188  A    between atoms: _446  and  _447
REMARK  189  A    between atoms: _452  and  _454
REMARK  190  A    between atoms: _454  and  _455
REMARK  191  A    between atoms: _454  and  _457
REMARK  192  A    between atoms: _457  and  _458
REMARK  193  A    between atoms: _463  and  _465
REMARK  194  A    between atoms: _465  and  _466
REMARK  195  A    between atoms: _465  and  _468
REMARK  196  A    between atoms: _468  and  _469
REMARK  197  A    between atoms: _474  and  _475
REMARK  198  A    between atoms: _477  and  _479
REMARK  199  A    between atoms: _479  and  _480
REMARK  200  A    between atoms: _479  and  _482
REMARK  201  A    between atoms: _484  and  _486
REMARK  202  A    between atoms: _486  and  _487
REMARK  203  A    between atoms: _486  and  _489
REMARK  204  A    between atoms: _489  and  _490
REMARK  205  A    between atoms: _490  and  _491
REMARK  206  A    between atoms: _491  and  _492
REMARK  207  A    between atoms: _492  and  _493
REMARK  208  A    between atoms: _497  and  _499
REMARK  209  A    between atoms: _499  and  _500
REMARK  210  A    between atoms: _499  and  _502
REMARK  211  A    between atoms: _502  and  _503
REMARK  212  A    between atoms: _503  and  _504
REMARK  213  A    between atoms: _507  and  _509
REMARK  214  A    between atoms: _509  and  _510
REMARK  215  A    between atoms: _509  and  _512
REMARK  216  A    between atoms: _514  and  _516
REMARK  217  A    between atoms: _516  and  _517
REMARK  218  A    between atoms: _520  and  _521
REMARK  219  A    between atoms: _526  and  _528
REMARK  220  A    between atoms: _528  and  _529
REMARK  221  A    between atoms: _528  and  _531
REMARK  222  A    between atoms: _534  and  _536
REMARK  223  A    between atoms: _536  and  _537
REMARK  224  A    between atoms: _536  and  _539
REMARK  225  A    between atoms: _539  and  _540
REMARK  226  A    between atoms: _543  and  _545
REMARK  227  A    between atoms: _545  and  _546
REMARK  228  A    between atoms: _545  and  _548
REMARK  229  A    between atoms: _548  and  _549
REMARK  230  A    between atoms: _555  and  _557
REMARK  231  A    between atoms: _557  and  _558
REMARK  232  A    between atoms: _557  and  _560
REMARK  233  A    between atoms: _560  and  _561
REMARK  234  A    between atoms: _561  and  _562
REMARK  235  A    between atoms: _564  and  _566
REMARK  236  A    between atoms: _566  and  _567
REMARK  237  A    between atoms: _566  and  _569
REMARK  238  A    between atoms: _569  and  _570
REMARK  239  A    between atoms: _570  and  _571
REMARK  240  A    between atoms: _574  and  _576
REMARK  241  A    between atoms: _576  and  _577
REMARK  242  A    between atoms: _576  and  _579
REMARK  243  A    between atoms: _579  and  _580
REMARK  244  A    between atoms: _580  and  _581
REMARK  245  A    between atoms: _581  and  _582
REMARK  246  A    between atoms: _582  and  _583
REMARK  247  A    between atoms: _587  and  _589
REMARK  248  A    between atoms: _589  and  _590
REMARK  249  A    between atoms: _589  and  _592
REMARK  250  A    between atoms: _592  and  _593
REMARK  251  A    between atoms: _598  and  _599
REMARK  252  A    between atoms: _601  and  _603
REMARK  253  A    between atoms: _603  and  _604
REMARK  254  A    between atoms: _603  and  _606
REMARK  255  A    between atoms: _606  and  _607
REMARK  256  A    between atoms: _610  and  _612
REMARK  257  A    between atoms: _612  and  _613
REMARK  258  A    between atoms: _612  and  _615
REMARK  259  A    between atoms: _615  and  _616
REMARK  260  A    between atoms: _621  and  _623
REMARK  261  A    between atoms: _623  and  _624
REMARK  262  A    between atoms: _623  and  _626
REMARK  263  A    between atoms: _626  and  _627
REMARK  264  A    between atoms: _629  and  _631
REMARK  265  A    between atoms: _631  and  _632
REMARK  266  A    between atoms: _631  and  _634
REMARK  267  A    between atoms: _634  and  _635
REMARK  268  A    between atoms: _635  and  _636
REMARK  269  A    between atoms: _636  and  _637
REMARK  270  A    between atoms: _637  and  _638
REMARK  271  A    between atoms: _642  and  _644
REMARK  272  A    between atoms: _644  and  _645
REMARK  273  A    between atoms: _644  and  _647
REMARK  274  A    between atoms: _647  and  _648
REMARK  275  A    between atoms: _648  and  _649
REMARK  276  A    between atoms: _654  and  _656
REMARK  277  A    between atoms: _656  and  _657
REMARK  278  A    between atoms: _656  and  _659
REMARK  279  A    between atoms: _662  and  _664
REMARK  280  A    between atoms: _664  and  _665
REMARK  281  A    between atoms: _664  and  _667
REMARK  282  A    between atoms: _667  and  _668
REMARK  283  A    between atoms: _674  and  _676
REMARK  284  A    between atoms: _676  and  _677
REMARK  285  A    between atoms: _680  and  _682
REMARK  286  A    between atoms: _682  and  _683
REMARK  287  A    between atoms: _682  and  _685
REMARK  288  A    between atoms: _685  and  _686
REMARK  289  A    between atoms: _689  and  _691
REMARK  290  A    between atoms: _691  and  _692
REMARK  291  A    between atoms: _691  and  _694
REMARK  292  A    between atoms: _694  and  _695
REMARK  293  A    between atoms: _695  and  _696
REMARK  294  A    between atoms: _696  and  _697
REMARK  295  A    between atoms: _706  and  _708
REMARK  296  A    between atoms: _708  and  _709
REMARK  297  A    between atoms: _708  and  _711
REMARK  298  A    between atoms: _711  and  _712
REMARK  299  A    between atoms: _718  and  _720
REMARK  300  A    between atoms: _720  and  _721
REMARK  301  A    between atoms: _720  and  _723
REMARK  302  A    between atoms: _723  and  _724
REMARK  303  A    between atoms: _727  and  _729
REMARK  304  A    between atoms: _729  and  _730
REMARK  305  A    between atoms: _729  and  _732
REMARK  306  A    between atoms: _732  and  _733
REMARK  307  A    between atoms: _738  and  _739
REMARK  308  A    between atoms: _741  and  _743
REMARK  309  A    between atoms: _743  and  _744
REMARK  310  A    between atoms: _747  and  _749
REMARK  311  A    between atoms: _749  and  _750
REMARK  312  A    between atoms: _749  and  _752
REMARK  313  A    between atoms: _752  and  _753
REMARK  314  A    between atoms: _753  and  _754
REMARK  315  A    between atoms: _756  and  _758
REMARK  316  A    between atoms: _758  and  _759
REMARK  317  A    between atoms: _758  and  _761
REMARK  318  A    between atoms: _761  and  _762
REMARK  319  A    between atoms: _767  and  _769
REMARK  320  A    between atoms: _769  and  _770
REMARK  321  A    between atoms: _769  and  _772
REMARK  322  A    between atoms: _772  and  _773
REMARK  323  A    between atoms: _773  and  _774
REMARK  324  A    between atoms: _774  and  _775
REMARK  325  A    between atoms: _784  and  _786
REMARK  326  A    between atoms: _786  and  _787
REMARK  327  A    between atoms: _786  and  _789
REMARK  328  A    between atoms: _789  and  _790
REMARK  329  A    between atoms: _790  and  _791
REMARK  330  A    between atoms: _794  and  _796
REMARK  331  A    between atoms: _796  and  _797
REMARK  332  A    between atoms: _796  and  _799
REMARK  333  A    between atoms: _802  and  _804
REMARK  334  A    between atoms: _804  and  _805
REMARK  335  A    between atoms: _804  and  _807
REMARK  336  A    between atoms: _807  and  _808
REMARK                            x       y       z     vdW  Elec       q    Type
REMARK                         _______ _______ _______ _____ _____    ______ ____
ROOT
ATOM      1  O   HOH     1       8.497   0.128 -10.435  0.00  0.00    +0.000 OA
ENDROOT
TORSDOF 0
REMARK  Name = ../refined-set-2016/1i5r/1i5r_pocket.pdb
REMARK  336 active torsions:
REMARK  status: ('A' for Active; 'I' for Inactive)
REMARK    1  A    between atoms: _1  and  _3
REMARK    2  A    between atoms: _3  and  _4
REMARK    3  A    between atoms: _3  and  _6
REMARK    4  A    between atoms: _6  and  _7
REMARK    5  A    between atoms: _10  and  _12
REMARK    6  A    between atoms: _12  and  _13
REMARK    7  A    between atoms: _12  and  _15
REMARK    8  A    between atoms: _15  and  _16
REMARK    9  A    between atoms: _19  and  _21
REMARK   10  A    between atoms: _21  and  _22
REMARK   11  A    between atoms: _24  and  _26
REMARK   12  A    between atoms: _26  and  _27
REMARK   13  A    between atoms: _26  and  _29
REMARK   14  A    between atoms: _31  and  _33
REMARK   15  A    between atoms: _33  and  _34
REMARK   16  A    between atoms: _33  and  _36
REMARK   17  A    between atoms: _36  and  _37
REMARK   18  A    between atoms: _39  and  _41
REMARK   19  A    between atoms: _41  and  _42
REMARK   20  A    between atoms: _41  and  _44
REMARK   21  A    between atoms: _44  and  _45
REMARK   22  A    between atoms: _47  and  _49
REMARK   23  A    between atoms: _49  and  _50
REMARK   24  A    between atoms: _52  and  _54
REMARK   25  A    between atoms: _54  and  _55
REMARK   26  A    between atoms: _54  and  _57
REMARK   27  A    between atoms: _57  and  _58
REMARK   28  A    between atoms: _61  and  _63
REMARK   29  A    between atoms: _63  and  _64
REMARK   30  A    between atoms: _66  and  _68
REMARK   31  A    between atoms: _68  and  _69
REMARK   32  A    between atoms: _68  and  _71
REMARK   33  A    between atoms: _71  and  _72
REMARK   34  A    between atoms: _75  and  _77
REMARK   35  A    between atoms: _77  and  _78
REMARK   36  A    between atoms: _77  and  _80
REMARK   37  A    between atoms: _80  and  _81
REMARK   38  A    between atoms: _86  and  _88
REMARK   39  A    between atoms: _88  and  _89
REMARK   40  A    between atoms: _88  and  _91
REMARK   41  A    between atoms: _91  and  _92
REMARK   42  A    between atoms: _95  and  _97
REMARK   43  A    between atoms: _97  and  _98
REMARK   44  A    between atoms: _97  and  _100
REMARK   45  A    between atoms: _100  and  _101
REMARK   46  A    between atoms: _104  and  _106
REMARK   47  A    between atoms: _106  and  _107
REMARK   48  A    between atoms: _106  and  _109
REMARK   49  A    between atoms: _109  and  _110
REMARK   50  A    between atoms: _110  and  _111
REMARK   51  A    between atoms: _111  and  _112
REMARK   52  A    between atoms: _121  and  _123
REMARK   53  A    between atoms: _123  and  _124
REMARK   54  A    between atoms: _123  and  _126
REMARK   55  A    between atoms: _126  and  _127
REMARK   56  A    between atoms: _130  and  _132
REMARK   57  A    between atoms: _132  and  _133
REMARK   58  A    between atoms: _132  and  _135
REMARK   59  A    between atoms: _135  and  _136
REMARK   60  A    between atoms: _139  and  _141
REMARK   61  A    between atoms: _141  and  _142
REMARK   62  A    between atoms: _141  and  _144
REMARK   63  A    between atoms: _144  and  _145
REMARK   64  A    between atoms: _145  and  _146
REMARK   65  A    between atoms: _146  and  _147
REMARK   66  A    between atoms: _156  and  _158
REMARK   67  A    between atoms: _158  and  _159
REMARK   68  A    between atoms: _158  and  _161
REMARK   69  A    between atoms: _161  and  _162
REMARK   70  A    between atoms: _165  and  _167
REMARK   71  A    between atoms: _167  and  _168
REMARK   72  A    between atoms: _167  and  _170
REMARK   73  A    between atoms: _170  and  _171
REMARK   74  A    between atoms: _171  and  _172
REMARK   75  A    between atoms: _177  and  _179
REMARK   76  A    between atoms: _179  and  _180
REMARK   77  A    between atoms: _179  and  _182
REMARK   78  A    between atoms: _182  and  _183
REMARK   79  A    between atoms: _186  and  _188
REMARK   80  A    between atoms: _188  and  _189
REMARK   81  A    between atoms: _188  and  _191
REMARK   82  A    between atoms: _191  and  _192
REMARK   83  A    between atoms: _195  and  _197
REMARK   84  A    between atoms: _197  and  _198
REMARK   85  A    between atoms: _197  and  _200
REMARK   86  A    between atoms: _203  and  _205
REMARK   87  A    between atoms: _205  and  _206
REMARK   88  A    between atoms: _205  and  _208
REMARK   89  A    between atoms: _208  and  _209
REMARK   90  A    between atoms: _209  and  _210
REMARK   91  A    between atoms: _210  and  _211
REMARK   92  A    between atoms: _220  and  _222
REMARK   93  A    between atoms: _222  and  _223
REMARK   94  A    between atoms: _222  and  _225
REMARK   95  A    between atoms: _225  and  _226
REMARK   96  A    between atoms: _229  and  _231
REMARK   97  A    between atoms: _231  and  _232
REMARK   98  A    between atoms: _231  and  _234
REMARK   99  A    between atoms: _234  and  _235
REMARK  100  A    between atoms: _237  and  _239
REMARK  101  A    between atoms: _239  and  _240
REMARK  102  A    between atoms: _239  and  _242
REMARK  103  A    between atoms: _245  and  _247
REMARK  104  A    between atoms: _247  and  _248
REMARK  105  A    between atoms: _247  and  _250
REMARK  106  A    between atoms: _252  and  _254
REMARK  107  A    between atoms: _254  and  _255
REMARK  108  A    between atoms: _254  and  _257
REMARK  109  A    between atoms: _257  and  _258
REMARK  110  A    between atoms: _263  and  _265
REMARK  111  A    between atoms: _265  and  _266
REMARK  112  A    between atoms: _269  and  _271
REMARK  113  A    between atoms: _271  and  _272
REMARK  114  A    between atoms: _274  and  _276
REMARK  115  A    between atoms: _276  and  _277
REMARK  116  A    between atoms: _276  and  _279
REMARK  117  A    between atoms: _279  and  _280
REMARK  118  A    between atoms: _283  and  _285
REMARK  119  A    between atoms: _285  and  _286
REMARK  120  A    between atoms: _288  and  _290
REMARK  121  A    between atoms: _290  and  _291
REMARK  122  A    between atoms: _290  and  _293
REMARK  123  A    between atoms: _293  and  _294
REMARK  124  A    between atoms: _297  and  _299
REMARK  125  A    between atoms: _299  and  _300
REMARK  126  A    between atoms: _299  and  _302
REMARK  127  A    between atoms: _302  and  _303
REMARK  128  A    between atoms: _306  and  _308
REMARK  129  A    between atoms: _308  and  _309
REMARK  130  A    between atoms: _308  and  _311
REMARK  131  A    between atoms: _311  and  _312
REMARK  132  A    between atoms: _314  and  _316
REMARK  133  A    between atoms: _316  and  _317
REMARK  134  A    between atoms: _316  and  _319
REMARK  135  A    between atoms: _319  and  _320
REMARK  136  A    between atoms: _323  and  _325
REMARK  137  A    between atoms: _325  and  _326
REMARK  138  A    between atoms: _325  and  _328
REMARK  139  A    between atoms: _331  and  _333
REMARK  140  A    between atoms: _333  and  _334
REMARK  141  A    between atoms: _333  and  _336
REMARK  142  A    between atoms: _336  and  _337
REMARK  143  A    between atoms: _342  and  _344
REMARK  144  A    between atoms: _344  and  _345
REMARK  145  A    between atoms: _347  and  _349
REMARK  146  A    between atoms: _349  and  _350
REMARK  147  A    between atoms: _349  and  _352
REMARK  148  A    between atoms: _352  and  _353
REMARK  149  A    between atoms: _353  and  _354
REMARK  150  A    between atoms: _354  and  _355
REMARK  151  A    between atoms: _364  and  _366
REMARK  152  A    between atoms: _366  and  _367
REMARK  153  A    between atoms: _366  and  _369
REMARK  154  A    between atoms: _369  and  _370
REMARK  155  A    between atoms: _370  and  _371
REMARK  156  A    between atoms: _373  and  _375
REMARK  157  A    between atoms: _375  and  _376
REMARK  158  A    between atoms: _375  and  _378
REMARK  159  A    between atoms: _378  and  _379
REMARK  160  A    between atoms: _382  and  _384
REMARK  161  A    between atoms: _384  and  _385
REMARK  162  A    between atoms: _387  and  _389
REMARK  163  A    between atoms: _389  and  _390
REMARK  164  A    between atoms: _389  and  _392
REMARK  165  A    between atoms: _392  and  _393
REMARK  166  A    between atoms: _395  and  _397
REMARK  167  A    between atoms: _397  and  _398
REMARK  168  A    between atoms: _397  and  _400
REMARK  169  A    between atoms: _403  and  _405
REMARK  170  A    between atoms: _405  and  _406
REMARK  171  A    between atoms: _408  and  _410
REMARK  172  A    between atoms: _410  and  _411
REMARK  173  A    between atoms: _413  and  _415
REMARK  174  A    between atoms: _415  and  _416
REMARK  175  A    between atoms: _415  and  _418
REMARK  176  A    between atoms: _418  and  _419
REMARK  177  A    between atoms: _422  and  _424
REMARK  178  A    between atoms: _424  and  _425
REMARK  179  A    between atoms: _424  and  _427
REMARK  180  A    between atoms: _427  and  _428
REMARK  181  A    between atoms: _428  and  _429
REMARK  182  A    between atoms: _431  and  _433
REMARK  183  A    between atoms: _433  and  _434
REMARK  184  A    between atoms: _436  and  _438
REMARK  185  A    between atoms: _438  and  _439
REMARK  186  A    between atoms: _438  and  _441
REMARK  187  A    between atoms: _441  and  _442
REMARK  188  A    between atoms: _446  and  _447
REMARK  189  A    between atoms: _452  and  _454
REMARK  190  A    between atoms: _454  and  _455
REMARK  191  A    between atoms: _454  and  _457
REMARK  192  A    between atoms: _457  and  _458
REMARK  193  A    between atoms: _463  and  _465
REMARK  194  A    between atoms: _465  and  _466
REMARK  195  A    between atoms: _465  and  _468
REMARK  196  A    between atoms: _468  and  _469
REMARK  197  A    between atoms: _474  and  _475
REMARK  198  A    between atoms: _477  and  _479
REMARK  199  A    between atoms: _479  and  _480
REMARK  200  A    between atoms: _479  and  _482
REMARK  201  A    between atoms: _484  and  _486
REMARK  202  A    between atoms: _486  and  _487
REMARK  203  A    between atoms: _486  and  _489
REMARK  204  A    between atoms: _489  and  _490
REMARK  205  A    between atoms: _490  and  _491
REMARK  206  A    between atoms: _491  and  _492
REMARK  207  A    between atoms: _492  and  _493
REMARK  208  A    between atoms: _497  and  _499
REMARK  209  A    between atoms: _499  and  _500
REMARK  210  A    between atoms: _499  and  _502
REMARK  211  A    between atoms: _502  and  _503
REMARK  212  A    between atoms: _503  and  _504
REMARK  213  A    between atoms: _507  and  _509
REMARK  214  A    between atoms: _509  and  _510
REMARK  215  A    between atoms: _509  and  _512
REMARK  216  A    between atoms: _514  and  _516
REMARK  217  A    between atoms: _516  and  _517
REMARK  218  A    between atoms: _520  and  _521
REMARK  219  A    between atoms: _526  and  _528
REMARK  220  A    between atoms: _528  and  _529
REMARK  221  A    between atoms: _528  and  _531
REMARK  222  A    between atoms: _534  and  _536
REMARK  223  A    between atoms: _536  and  _537
REMARK  224  A    between atoms: _536  and  _539
REMARK  225  A    between atoms: _539  and  _540
REMARK  226  A    between atoms: _543  and  _545
REMARK  227  A    between atoms: _545  and  _546
REMARK  228  A    between atoms: _545  and  _548
REMARK  229  A    between atoms: _548  and  _549
REMARK  230  A    between atoms: _555  and  _557
REMARK  231  A    between atoms: _557  and  _558
REMARK  232  A    between atoms: _557  and  _560
REMARK  233  A    between atoms: _560  and  _561
REMARK  234  A    between atoms: _561  and  _562
REMARK  235  A    between atoms: _564  and  _566
REMARK  236  A    between atoms: _566  and  _567
REMARK  237  A    between atoms: _566  and  _569
REMARK  238  A    between atoms: _569  and  _570
REMARK  239  A    between atoms: _570  and  _571
REMARK  240  A    between atoms: _574  and  _576
REMARK  241  A    between atoms: _576  and  _577
REMARK  242  A    between atoms: _576  and  _579
REMARK  243  A    between atoms: _579  and  _580
REMARK  244  A    between atoms: _580  and  _581
REMARK  245  A    between atoms: _581  and  _582
REMARK  246  A    between atoms: _582  and  _583
REMARK  247  A    between atoms: _587  and  _589
REMARK  248  A    between atoms: _589  and  _590
REMARK  249  A    between atoms: _589  and  _592
REMARK  250  A    between atoms: _592  and  _593
REMARK  251  A    between atoms: _598  and  _599
REMARK  252  A    between atoms: _601  and  _603
REMARK  253  A    between atoms: _603  and  _604
REMARK  254  A    between atoms: _603  and  _606
REMARK  255  A    between atoms: _606  and  _607
REMARK  256  A    between atoms: _610  and  _612
REMARK  257  A    between atoms: _612  and  _613
REMARK  258  A    between atoms: _612  and  _615
REMARK  259  A    between atoms: _615  and  _616
REMARK  260  A    between atoms: _621  and  _623
REMARK  261  A    between atoms: _623  and  _624
REMARK  262  A    between atoms: _623  and  _626
REMARK  263  A    between atoms: _626  and  _627
REMARK  264  A    between atoms: _629  and  _631
REMARK  265  A    between atoms: _631  and  _632
REMARK  266  A    between atoms: _631  and  _634
REMARK  267  A    between atoms: _634  and  _635
REMARK  268  A    between atoms: _635  and  _636
REMARK  269  A    between atoms: _636  and  _637
REMARK  270  A    between atoms: _637  and  _638
REMARK  271  A    between atoms: _642  and  _644
REMARK  272  A    between atoms: _644  and  _645
REMARK  273  A    between atoms: _644  and  _647
REMARK  274  A    between atoms: _647  and  _648
REMARK  275  A    between atoms: _648  and  _649
REMARK  276  A    between atoms: _654  and  _656
REMARK  277  A    between atoms: _656  and  _657
REMARK  278  A    between atoms: _656  and  _659
REMARK  279  A    between atoms: _662  and  _664
REMARK  280  A    between atoms: _664  and  _665
REMARK  281  A    between atoms: _664  and  _667
REMARK  282  A    between atoms: _667  and  _668
REMARK  283  A    between atoms: _674  and  _676
REMARK  284  A    between atoms: _676  and  _677
REMARK  285  A    between atoms: _680  and  _682
REMARK  286  A    between atoms: _682  and  _683
REMARK  287  A    between atoms: _682  and  _685
REMARK  288  A    between atoms: _685  and  _686
REMARK  289  A    between atoms: _689  and  _691
REMARK  290  A    between atoms: _691  and  _692
REMARK  291  A    between atoms: _691  and  _694
REMARK  292  A    between atoms: _694  and  _695
REMARK  293  A    between atoms: _695  and  _696
REMARK  294  A    between atoms: _696  and  _697
REMARK  295  A    between atoms: _706  and  _708
REMARK  296  A    between atoms: _708  and  _709
REMARK  297  A    between atoms: _708  and  _711
REMARK  298  A    between atoms: _711  and  _712
REMARK  299  A    between atoms: _718  and  _720
REMARK  300  A    between atoms: _720  and  _721
REMARK  301  A    between atoms: _720  and  _723
REMARK  302  A    between atoms: _723  and  _724
REMARK  303  A    between atoms: _727  and  _729
REMARK  304  A    between atoms: _729  and  _730
REMARK  305  A    between atoms: _729  and  _732
REMARK  306  A    between atoms: _732  and  _733
REMARK  307  A    between atoms: _738  and  _739
REMARK  308  A    between atoms: _741  and  _743
REMARK  309  A    between atoms: _743  and  _744
REMARK  310  A    between atoms: _747  and  _749
REMARK  311  A    between atoms: _749  and  _750
REMARK  312  A    between atoms: _749  and  _752
REMARK  313  A    between atoms: _752  and  _753
REMARK  314  A    between atoms: _753  and  _754
REMARK  315  A    between atoms: _756  and  _758
REMARK  316  A    between atoms: _758  and  _759
REMARK  317  A    between atoms: _758  and  _761
REMARK  318  A    between atoms: _761  and  _762
REMARK  319  A    between atoms: _767  and  _769
REMARK  320  A    between atoms: _769  and  _770
REMARK  321  A    between atoms: _769  and  _772
REMARK  322  A    between atoms: _772  and  _773
REMARK  323  A    between atoms: _773  and  _774
REMARK  324  A    between atoms: _774  and  _775
REMARK  325  A    between atoms: _784  and  _786
REMARK  326  A    between atoms: _786  and  _787
REMARK  327  A    between atoms: _786  and  _789
REMARK  328  A    between atoms: _789  and  _790
REMARK  329  A    between atoms: _790  and  _791
REMARK  330  A    between atoms: _794  and  _796
REMARK  331  A    between atoms: _796  and  _797
REMARK  332  A    between atoms: _796  and  _799
REMARK  333  A    between atoms: _802  and  _804
REMARK  334  A    between atoms: _804  and  _805
REMARK  335  A    between atoms: _804  and  _807
REMARK  336  A    between atoms: _807  and  _808
REMARK                            x       y       z     vdW  Elec       q    Type
REMARK                         _______ _______ _______ _____ _____    ______ ____
ROOT
ATOM      1  O   HOH     1      10.051  -1.192   0.279  0.00  0.00    +0.000 OA
ENDROOT
TORSDOF 0
REMARK  Name = ../refined-set-2016/1i5r/1i5r_pocket.pdb
REMARK  336 active torsions:
REMARK  status: ('A' for Active; 'I' for Inactive)
REMARK    1  A    between atoms: _1  and  _3
REMARK    2  A    between atoms: _3  and  _4
REMARK    3  A    between atoms: _3  and  _6
REMARK    4  A    between atoms: _6  and  _7
REMARK    5  A    between atoms: _10  and  _12
REMARK    6  A    between atoms: _12  and  _13
REMARK    7  A    between atoms: _12  and  _15
REMARK    8  A    between atoms: _15  and  _16
REMARK    9  A    between atoms: _19  and  _21
REMARK   10  A    between atoms: _21  and  _22
REMARK   11  A    between atoms: _24  and  _26
REMARK   12  A    between atoms: _26  and  _27
REMARK   13  A    between atoms: _26  and  _29
REMARK   14  A    between atoms: _31  and  _33
REMARK   15  A    between atoms: _33  and  _34
REMARK   16  A    between atoms: _33  and  _36
REMARK   17  A    between atoms: _36  and  _37
REMARK   18  A    between atoms: _39  and  _41
REMARK   19  A    between atoms: _41  and  _42
REMARK   20  A    between atoms: _41  and  _44
REMARK   21  A    between atoms: _44  and  _45
REMARK   22  A    between atoms: _47  and  _49
REMARK   23  A    between atoms: _49  and  _50
REMARK   24  A    between atoms: _52  and  _54
REMARK   25  A    between atoms: _54  and  _55
REMARK   26  A    between atoms: _54  and  _57
REMARK   27  A    between atoms: _57  and  _58
REMARK   28  A    between atoms: _61  and  _63
REMARK   29  A    between atoms: _63  and  _64
REMARK   30  A    between atoms: _66  and  _68
REMARK   31  A    between atoms: _68  and  _69
REMARK   32  A    between atoms: _68  and  _71
REMARK   33  A    between atoms: _71  and  _72
REMARK   34  A    between atoms: _75  and  _77
REMARK   35  A    between atoms: _77  and  _78
REMARK   36  A    between atoms: _77  and  _80
REMARK   37  A    between atoms: _80  and  _81
REMARK   38  A    between atoms: _86  and  _88
REMARK   39  A    between atoms: _88  and  _89
REMARK   40  A    between atoms: _88  and  _91
REMARK   41  A    between atoms: _91  and  _92
REMARK   42  A    between atoms: _95  and  _97
REMARK   43  A    between atoms: _97  and  _98
REMARK   44  A    between atoms: _97  and  _100
REMARK   45  A    between atoms: _100  and  _101
REMARK   46  A    between atoms: _104  and  _106
REMARK   47  A    between atoms: _106  and  _107
REMARK   48  A    between atoms: _106  and  _109
REMARK   49  A    between atoms: _109  and  _110
REMARK   50  A    between atoms: _110  and  _111
REMARK   51  A    between atoms: _111  and  _112
REMARK   52  A    between atoms: _121  and  _123
REMARK   53  A    between atoms: _123  and  _124
REMARK   54  A    between atoms: _123  and  _126
REMARK   55  A    between atoms: _126  and  _127
REMARK   56  A    between atoms: _130  and  _132
REMARK   57  A    between atoms: _132  and  _133
REMARK   58  A    between atoms: _132  and  _135
REMARK   59  A    between atoms: _135  and  _136
REMARK   60  A    between atoms: _139  and  _141
REMARK   61  A    between atoms: _141  and  _142
REMARK   62  A    between atoms: _141  and  _144
REMARK   63  A    between atoms: _144  and  _145
REMARK   64  A    between atoms: _145  and  _146
REMARK   65  A    between atoms: _146  and  _147
REMARK   66  A    between atoms: _156  and  _158
REMARK   67  A    between atoms: _158  and  _159
REMARK   68  A    between atoms: _158  and  _161
REMARK   69  A    between atoms: _161  and  _162
REMARK   70  A    between atoms: _165  and  _167
REMARK   71  A    between atoms: _167  and  _168
REMARK   72  A    between atoms: _167  and  _170
REMARK   73  A    between atoms: _170  and  _171
REMARK   74  A    between atoms: _171  and  _172
REMARK   75  A    between atoms: _177  and  _179
REMARK   76  A    between atoms: _179  and  _180
REMARK   77  A    between atoms: _179  and  _182
REMARK   78  A    between atoms: _182  and  _183
REMARK   79  A    between atoms: _186  and  _188
REMARK   80  A    between atoms: _188  and  _189
REMARK   81  A    between atoms: _188  and  _191
REMARK   82  A    between atoms: _191  and  _192
REMARK   83  A    between atoms: _195  and  _197
REMARK   84  A    between atoms: _197  and  _198
REMARK   85  A    between atoms: _197  and  _200
REMARK   86  A    between atoms: _203  and  _205
REMARK   87  A    between atoms: _205  and  _206
REMARK   88  A    between atoms: _205  and  _208
REMARK   89  A    between atoms: _208  and  _209
REMARK   90  A    between atoms: _209  and  _210
REMARK   91  A    between atoms: _210  and  _211
REMARK   92  A    between atoms: _220  and  _222
REMARK   93  A    between atoms: _222  and  _223
REMARK   94  A    between atoms: _222  and  _225
REMARK   95  A    between atoms: _225  and  _226
REMARK   96  A    between atoms: _229  and  _231
REMARK   97  A    between atoms: _231  and  _232
REMARK   98  A    between atoms: _231  and  _234
REMARK   99  A    between atoms: _234  and  _235
REMARK  100  A    between atoms: _237  and  _239
REMARK  101  A    between atoms: _239  and  _240
REMARK  102  A    between atoms: _239  and  _242
REMARK  103  A    between atoms: _245  and  _247
REMARK  104  A    between atoms: _247  and  _248
REMARK  105  A    between atoms: _247  and  _250
REMARK  106  A    between atoms: _252  and  _254
REMARK  107  A    between atoms: _254  and  _255
REMARK  108  A    between atoms: _254  and  _257
REMARK  109  A    between atoms: _257  and  _258
REMARK  110  A    between atoms: _263  and  _265
REMARK  111  A    between atoms: _265  and  _266
REMARK  112  A    between atoms: _269  and  _271
REMARK  113  A    between atoms: _271  and  _272
REMARK  114  A    between atoms: _274  and  _276
REMARK  115  A    between atoms: _276  and  _277
REMARK  116  A    between atoms: _276  and  _279
REMARK  117  A    between atoms: _279  and  _280
REMARK  118  A    between atoms: _283  and  _285
REMARK  119  A    between atoms: _285  and  _286
REMARK  120  A    between atoms: _288  and  _290
REMARK  121  A    between atoms: _290  and  _291
REMARK  122  A    between atoms: _290  and  _293
REMARK  123  A    between atoms: _293  and  _294
REMARK  124  A    between atoms: _297  and  _299
REMARK  125  A    between atoms: _299  and  _300
REMARK  126  A    between atoms: _299  and  _302
REMARK  127  A    between atoms: _302  and  _303
REMARK  128  A    between atoms: _306  and  _308
REMARK  129  A    between atoms: _308  and  _309
REMARK  130  A    between atoms: _308  and  _311
REMARK  131  A    between atoms: _311  and  _312
REMARK  132  A    between atoms: _314  and  _316
REMARK  133  A    between atoms: _316  and  _317
REMARK  134  A    between atoms: _316  and  _319
REMARK  135  A    between atoms: _319  and  _320
REMARK  136  A    between atoms: _323  and  _325
REMARK  137  A    between atoms: _325  and  _326
REMARK  138  A    between atoms: _325  and  _328
REMARK  139  A    between atoms: _331  and  _333
REMARK  140  A    between atoms: _333  and  _334
REMARK  141  A    between atoms: _333  and  _336
REMARK  142  A    between atoms: _336  and  _337
REMARK  143  A    between atoms: _342  and  _344
REMARK  144  A    between atoms: _344  and  _345
REMARK  145  A    between atoms: _347  and  _349
REMARK  146  A    between atoms: _349  and  _350
REMARK  147  A    between atoms: _349  and  _352
REMARK  148  A    between atoms: _352  and  _353
REMARK  149  A    between atoms: _353  and  _354
REMARK  150  A    between atoms: _354  and  _355
REMARK  151  A    between atoms: _364  and  _366
REMARK  152  A    between atoms: _366  and  _367
REMARK  153  A    between atoms: _366  and  _369
REMARK  154  A    between atoms: _369  and  _370
REMARK  155  A    between atoms: _370  and  _371
REMARK  156  A    between atoms: _373  and  _375
REMARK  157  A    between atoms: _375  and  _376
REMARK  158  A    between atoms: _375  and  _378
REMARK  159  A    between atoms: _378  and  _379
REMARK  160  A    between atoms: _382  and  _384
REMARK  161  A    between atoms: _384  and  _385
REMARK  162  A    between atoms: _387  and  _389
REMARK  163  A    between atoms: _389  and  _390
REMARK  164  A    between atoms: _389  and  _392
REMARK  165  A    between atoms: _392  and  _393
REMARK  166  A    between atoms: _395  and  _397
REMARK  167  A    between atoms: _397  and  _398
REMARK  168  A    between atoms: _397  and  _400
REMARK  169  A    between atoms: _403  and  _405
REMARK  170  A    between atoms: _405  and  _406
REMARK  171  A    between atoms: _408  and  _410
REMARK  172  A    between atoms: _410  and  _411
REMARK  173  A    between atoms: _413  and  _415
REMARK  174  A    between atoms: _415  and  _416
REMARK  175  A    between atoms: _415  and  _418
REMARK  176  A    between atoms: _418  and  _419
REMARK  177  A    between atoms: _422  and  _424
REMARK  178  A    between atoms: _424  and  _425
REMARK  179  A    between atoms: _424  and  _427
REMARK  180  A    between atoms: _427  and  _428
REMARK  181  A    between atoms: _428  and  _429
REMARK  182  A    between atoms: _431  and  _433
REMARK  183  A    between atoms: _433  and  _434
REMARK  184  A    between atoms: _436  and  _438
REMARK  185  A    between atoms: _438  and  _439
REMARK  186  A    between atoms: _438  and  _441
REMARK  187  A    between atoms: _441  and  _442
REMARK  188  A    between atoms: _446  and  _447
REMARK  189  A    between atoms: _452  and  _454
REMARK  190  A    between atoms: _454  and  _455
REMARK  191  A    between atoms: _454  and  _457
REMARK  192  A    between atoms: _457  and  _458
REMARK  193  A    between atoms: _463  and  _465
REMARK  194  A    between atoms: _465  and  _466
REMARK  195  A    between atoms: _465  and  _468
REMARK  196  A    between atoms: _468  and  _469
REMARK  197  A    between atoms: _474  and  _475
REMARK  198  A    between atoms: _477  and  _479
REMARK  199  A    between atoms: _479  and  _480
REMARK  200  A    between atoms: _479  and  _482
REMARK  201  A    between atoms: _484  and  _486
REMARK  202  A    between atoms: _486  and  _487
REMARK  203  A    between atoms: _486  and  _489
REMARK  204  A    between atoms: _489  and  _490
REMARK  205  A    between atoms: _490  and  _491
REMARK  206  A    between atoms: _491  and  _492
REMARK  207  A    between atoms: _492  and  _493
REMARK  208  A    between atoms: _497  and  _499
REMARK  209  A    between atoms: _499  and  _500
REMARK  210  A    between atoms: _499  and  _502
REMARK  211  A    between atoms: _502  and  _503
REMARK  212  A    between atoms: _503  and  _504
REMARK  213  A    between atoms: _507  and  _509
REMARK  214  A    between atoms: _509  and  _510
REMARK  215  A    between atoms: _509  and  _512
REMARK  216  A    between atoms: _514  and  _516
REMARK  217  A    between atoms: _516  and  _517
REMARK  218  A    between atoms: _520  and  _521
REMARK  219  A    between atoms: _526  and  _528
REMARK  220  A    between atoms: _528  and  _529
REMARK  221  A    between atoms: _528  and  _531
REMARK  222  A    between atoms: _534  and  _536
REMARK  223  A    between atoms: _536  and  _537
REMARK  224  A    between atoms: _536  and  _539
REMARK  225  A    between atoms: _539  and  _540
REMARK  226  A    between atoms: _543  and  _545
REMARK  227  A    between atoms: _545  and  _546
REMARK  228  A    between atoms: _545  and  _548
REMARK  229  A    between atoms: _548  and  _549
REMARK  230  A    between atoms: _555  and  _557
REMARK  231  A    between atoms: _557  and  _558
REMARK  232  A    between atoms: _557  and  _560
REMARK  233  A    between atoms: _560  and  _561
REMARK  234  A    between atoms: _561  and  _562
REMARK  235  A    between atoms: _564  and  _566
REMARK  236  A    between atoms: _566  and  _567
REMARK  237  A    between atoms: _566  and  _569
REMARK  238  A    between atoms: _569  and  _570
REMARK  239  A    between atoms: _570  and  _571
REMARK  240  A    between atoms: _574  and  _576
REMARK  241  A    between atoms: _576  and  _577
REMARK  242  A    between atoms: _576  and  _579
REMARK  243  A    between atoms: _579  and  _580
REMARK  244  A    between atoms: _580  and  _581
REMARK  245  A    between atoms: _581  and  _582
REMARK  246  A    between atoms: _582  and  _583
REMARK  247  A    between atoms: _587  and  _589
REMARK  248  A    between atoms: _589  and  _590
REMARK  249  A    between atoms: _589  and  _592
REMARK  250  A    between atoms: _592  and  _593
REMARK  251  A    between atoms: _598  and  _599
REMARK  252  A    between atoms: _601  and  _603
REMARK  253  A    between atoms: _603  and  _604
REMARK  254  A    between atoms: _603  and  _606
REMARK  255  A    between atoms: _606  and  _607
REMARK  256  A    between atoms: _610  and  _612
REMARK  257  A    between atoms: _612  and  _613
REMARK  258  A    between atoms: _612  and  _615
REMARK  259  A    between atoms: _615  and  _616
REMARK  260  A    between atoms: _621  and  _623
REMARK  261  A    between atoms: _623  and  _624
REMARK  262  A    between atoms: _623  and  _626
REMARK  263  A    between atoms: _626  and  _627
REMARK  264  A    between atoms: _629  and  _631
REMARK  265  A    between atoms: _631  and  _632
REMARK  266  A    between atoms: _631  and  _634
REMARK  267  A    between atoms: _634  and  _635
REMARK  268  A    between atoms: _635  and  _636
REMARK  269  A    between atoms: _636  and  _637
REMARK  270  A    between atoms: _637  and  _638
REMARK  271  A    between atoms: _642  and  _644
REMARK  272  A    between atoms: _644  and  _645
REMARK  273  A    between atoms: _644  and  _647
REMARK  274  A    between atoms: _647  and  _648
REMARK  275  A    between atoms: _648  and  _649
REMARK  276  A    between atoms: _654  and  _656
REMARK  277  A    between atoms: _656  and  _657
REMARK  278  A    between atoms: _656  and  _659
REMARK  279  A    between atoms: _662  and  _664
REMARK  280  A    between atoms: _664  and  _665
REMARK  281  A    between atoms: _664  and  _667
REMARK  282  A    between atoms: _667  and  _668
REMARK  283  A    between atoms: _674  and  _676
REMARK  284  A    between atoms: _676  and  _677
REMARK  285  A    between atoms: _680  and  _682
REMARK  286  A    between atoms: _682  and  _683
REMARK  287  A    between atoms: _682  and  _685
REMARK  288  A    between atoms: _685  and  _686
REMARK  289  A    between atoms: _689  and  _691
REMARK  290  A    between atoms: _691  and  _692
REMARK  291  A    between atoms: _691  and  _694
REMARK  292  A    between atoms: _694  and  _695
REMARK  293  A    between atoms: _695  and  _696
REMARK  294  A    between atoms: _696  and  _697
REMARK  295  A    between atoms: _706  and  _708
REMARK  296  A    between atoms: _708  and  _709
REMARK  297  A    between atoms: _708  and  _711
REMARK  298  A    between atoms: _711  and  _712
REMARK  299  A    between atoms: _718  and  _720
REMARK  300  A    between atoms: _720  and  _721
REMARK  301  A    between atoms: _720  and  _723
REMARK  302  A    between atoms: _723  and  _724
REMARK  303  A    between atoms: _727  and  _729
REMARK  304  A    between atoms: _729  and  _730
REMARK  305  A    between atoms: _729  and  _732
REMARK  306  A    between atoms: _732  and  _733
REMARK  307  A    between atoms: _738  and  _739
REMARK  308  A    between atoms: _741  and  _743
REMARK  309  A    between atoms: _743  and  _744
REMARK  310  A    between atoms: _747  and  _749
REMARK  311  A    between atoms: _749  and  _750
REMARK  312  A    between atoms: _749  and  _752
REMARK  313  A    between atoms: _752  and  _753
REMARK  314  A    between atoms: _753  and  _754
REMARK  315  A    between atoms: _756  and  _758
REMARK  316  A    between atoms: _758  and  _759
REMARK  317  A    between atoms: _758  and  _761
REMARK  318  A    between atoms: _761  and  _762
REMARK  319  A    between atoms: _767  and  _769
REMARK  320  A    between atoms: _769  and  _770
REMARK  321  A    between atoms: _769  and  _772
REMARK  322  A    between atoms: _772  and  _773
REMARK  323  A    between atoms: _773  and  _774
REMARK  324  A    between atoms: _774  and  _775
REMARK  325  A    between atoms: _784  and  _786
REMARK  326  A    between atoms: _786  and  _787
REMARK  327  A    between atoms: _786  and  _789
REMARK  328  A    between atoms: _789  and  _790
REMARK  329  A    between atoms: _790  and  _791
REMARK  330  A    between atoms: _794  and  _796
REMARK  331  A    between atoms: _796  and  _797
REMARK  332  A    between atoms: _796  and  _799
REMARK  333  A    between atoms: _802  and  _804
REMARK  334  A    between atoms: _804  and  _805
REMARK  335  A    between atoms: _804  and  _807
REMARK  336  A    between atoms: _807  and  _808
REMARK                            x       y       z     vdW  Elec       q    Type
REMARK                         _______ _______ _______ _____ _____    ______ ____
ROOT
ATOM      1  O   HOH     1      16.233   0.724  -2.215  0.00  0.00    +0.000 OA
ENDROOT
TORSDOF 0
REMARK  Name = ../refined-set-2016/1i5r/1i5r_pocket.pdb
REMARK  336 active torsions:
REMARK  status: ('A' for Active; 'I' for Inactive)
REMARK    1  A    between atoms: _1  and  _3
REMARK    2  A    between atoms: _3  and  _4
REMARK    3  A    between atoms: _3  and  _6
REMARK    4  A    between atoms: _6  and  _7
REMARK    5  A    between atoms: _10  and  _12
REMARK    6  A    between atoms: _12  and  _13
REMARK    7  A    between atoms: _12  and  _15
REMARK    8  A    between atoms: _15  and  _16
REMARK    9  A    between atoms: _19  and  _21
REMARK   10  A    between atoms: _21  and  _22
REMARK   11  A    between atoms: _24  and  _26
REMARK   12  A    between atoms: _26  and  _27
REMARK   13  A    between atoms: _26  and  _29
REMARK   14  A    between atoms: _31  and  _33
REMARK   15  A    between atoms: _33  and  _34
REMARK   16  A    between atoms: _33  and  _36
REMARK   17  A    between atoms: _36  and  _37
REMARK   18  A    between atoms: _39  and  _41
REMARK   19  A    between atoms: _41  and  _42
REMARK   20  A    between atoms: _41  and  _44
REMARK   21  A    between atoms: _44  and  _45
REMARK   22  A    between atoms: _47  and  _49
REMARK   23  A    between atoms: _49  and  _50
REMARK   24  A    between atoms: _52  and  _54
REMARK   25  A    between atoms: _54  and  _55
REMARK   26  A    between atoms: _54  and  _57
REMARK   27  A    between atoms: _57  and  _58
REMARK   28  A    between atoms: _61  and  _63
REMARK   29  A    between atoms: _63  and  _64
REMARK   30  A    between atoms: _66  and  _68
REMARK   31  A    between atoms: _68  and  _69
REMARK   32  A    between atoms: _68  and  _71
REMARK   33  A    between atoms: _71  and  _72
REMARK   34  A    between atoms: _75  and  _77
REMARK   35  A    between atoms: _77  and  _78
REMARK   36  A    between atoms: _77  and  _80
REMARK   37  A    between atoms: _80  and  _81
REMARK   38  A    between atoms: _86  and  _88
REMARK   39  A    between atoms: _88  and  _89
REMARK   40  A    between atoms: _88  and  _91
REMARK   41  A    between atoms: _91  and  _92
REMARK   42  A    between atoms: _95  and  _97
REMARK   43  A    between atoms: _97  and  _98
REMARK   44  A    between atoms: _97  and  _100
REMARK   45  A    between atoms: _100  and  _101
REMARK   46  A    between atoms: _104  and  _106
REMARK   47  A    between atoms: _106  and  _107
REMARK   48  A    between atoms: _106  and  _109
REMARK   49  A    between atoms: _109  and  _110
REMARK   50  A    between atoms: _110  and  _111
REMARK   51  A    between atoms: _111  and  _112
REMARK   52  A    between atoms: _121  and  _123
REMARK   53  A    between atoms: _123  and  _124
REMARK   54  A    between atoms: _123  and  _126
REMARK   55  A    between atoms: _126  and  _127
REMARK   56  A    between atoms: _130  and  _132
REMARK   57  A    between atoms: _132  and  _133
REMARK   58  A    between atoms: _132  and  _135
REMARK   59  A    between atoms: _135  and  _136
REMARK   60  A    between atoms: _139  and  _141
REMARK   61  A    between atoms: _141  and  _142
REMARK   62  A    between atoms: _141  and  _144
REMARK   63  A    between atoms: _144  and  _145
REMARK   64  A    between atoms: _145  and  _146
REMARK   65  A    between atoms: _146  and  _147
REMARK   66  A    between atoms: _156  and  _158
REMARK   67  A    between atoms: _158  and  _159
REMARK   68  A    between atoms: _158  and  _161
REMARK   69  A    between atoms: _161  and  _162
REMARK   70  A    between atoms: _165  and  _167
REMARK   71  A    between atoms: _167  and  _168
REMARK   72  A    between atoms: _167  and  _170
REMARK   73  A    between atoms: _170  and  _171
REMARK   74  A    between atoms: _171  and  _172
REMARK   75  A    between atoms: _177  and  _179
REMARK   76  A    between atoms: _179  and  _180
REMARK   77  A    between atoms: _179  and  _182
REMARK   78  A    between atoms: _182  and  _183
REMARK   79  A    between atoms: _186  and  _188
REMARK   80  A    between atoms: _188  and  _189
REMARK   81  A    between atoms: _188  and  _191
REMARK   82  A    between atoms: _191  and  _192
REMARK   83  A    between atoms: _195  and  _197
REMARK   84  A    between atoms: _197  and  _198
REMARK   85  A    between atoms: _197  and  _200
REMARK   86  A    between atoms: _203  and  _205
REMARK   87  A    between atoms: _205  and  _206
REMARK   88  A    between atoms: _205  and  _208
REMARK   89  A    between atoms: _208  and  _209
REMARK   90  A    between atoms: _209  and  _210
REMARK   91  A    between atoms: _210  and  _211
REMARK   92  A    between atoms: _220  and  _222
REMARK   93  A    between atoms: _222  and  _223
REMARK   94  A    between atoms: _222  and  _225
REMARK   95  A    between atoms: _225  and  _226
REMARK   96  A    between atoms: _229  and  _231
REMARK   97  A    between atoms: _231  and  _232
REMARK   98  A    between atoms: _231  and  _234
REMARK   99  A    between atoms: _234  and  _235
REMARK  100  A    between atoms: _237  and  _239
REMARK  101  A    between atoms: _239  and  _240
REMARK  102  A    between atoms: _239  and  _242
REMARK  103  A    between atoms: _245  and  _247
REMARK  104  A    between atoms: _247  and  _248
REMARK  105  A    between atoms: _247  and  _250
REMARK  106  A    between atoms: _252  and  _254
REMARK  107  A    between atoms: _254  and  _255
REMARK  108  A    between atoms: _254  and  _257
REMARK  109  A    between atoms: _257  and  _258
REMARK  110  A    between atoms: _263  and  _265
REMARK  111  A    between atoms: _265  and  _266
REMARK  112  A    between atoms: _269  and  _271
REMARK  113  A    between atoms: _271  and  _272
REMARK  114  A    between atoms: _274  and  _276
REMARK  115  A    between atoms: _276  and  _277
REMARK  116  A    between atoms: _276  and  _279
REMARK  117  A    between atoms: _279  and  _280
REMARK  118  A    between atoms: _283  and  _285
REMARK  119  A    between atoms: _285  and  _286
REMARK  120  A    between atoms: _288  and  _290
REMARK  121  A    between atoms: _290  and  _291
REMARK  122  A    between atoms: _290  and  _293
REMARK  123  A    between atoms: _293  and  _294
REMARK  124  A    between atoms: _297  and  _299
REMARK  125  A    between atoms: _299  and  _300
REMARK  126  A    between atoms: _299  and  _302
REMARK  127  A    between atoms: _302  and  _303
REMARK  128  A    between atoms: _306  and  _308
REMARK  129  A    between atoms: _308  and  _309
REMARK  130  A    between atoms: _308  and  _311
REMARK  131  A    between atoms: _311  and  _312
REMARK  132  A    between atoms: _314  and  _316
REMARK  133  A    between atoms: _316  and  _317
REMARK  134  A    between atoms: _316  and  _319
REMARK  135  A    between atoms: _319  and  _320
REMARK  136  A    between atoms: _323  and  _325
REMARK  137  A    between atoms: _325  and  _326
REMARK  138  A    between atoms: _325  and  _328
REMARK  139  A    between atoms: _331  and  _333
REMARK  140  A    between atoms: _333  and  _334
REMARK  141  A    between atoms: _333  and  _336
REMARK  142  A    between atoms: _336  and  _337
REMARK  143  A    between atoms: _342  and  _344
REMARK  144  A    between atoms: _344  and  _345
REMARK  145  A    between atoms: _347  and  _349
REMARK  146  A    between atoms: _349  and  _350
REMARK  147  A    between atoms: _349  and  _352
REMARK  148  A    between atoms: _352  and  _353
REMARK  149  A    between atoms: _353  and  _354
REMARK  150  A    between atoms: _354  and  _355
REMARK  151  A    between atoms: _364  and  _366
REMARK  152  A    between atoms: _366  and  _367
REMARK  153  A    between atoms: _366  and  _369
REMARK  154  A    between atoms: _369  and  _370
REMARK  155  A    between atoms: _370  and  _371
REMARK  156  A    between atoms: _373  and  _375
REMARK  157  A    between atoms: _375  and  _376
REMARK  158  A    between atoms: _375  and  _378
REMARK  159  A    between atoms: _378  and  _379
REMARK  160  A    between atoms: _382  and  _384
REMARK  161  A    between atoms: _384  and  _385
REMARK  162  A    between atoms: _387  and  _389
REMARK  163  A    between atoms: _389  and  _390
REMARK  164  A    between atoms: _389  and  _392
REMARK  165  A    between atoms: _392  and  _393
REMARK  166  A    between atoms: _395  and  _397
REMARK  167  A    between atoms: _397  and  _398
REMARK  168  A    between atoms: _397  and  _400
REMARK  169  A    between atoms: _403  and  _405
REMARK  170  A    between atoms: _405  and  _406
REMARK  171  A    between atoms: _408  and  _410
REMARK  172  A    between atoms: _410  and  _411
REMARK  173  A    between atoms: _413  and  _415
REMARK  174  A    between atoms: _415  and  _416
REMARK  175  A    between atoms: _415  and  _418
REMARK  176  A    between atoms: _418  and  _419
REMARK  177  A    between atoms: _422  and  _424
REMARK  178  A    between atoms: _424  and  _425
REMARK  179  A    between atoms: _424  and  _427
REMARK  180  A    between atoms: _427  and  _428
REMARK  181  A    between atoms: _428  and  _429
REMARK  182  A    between atoms: _431  and  _433
REMARK  183  A    between atoms: _433  and  _434
REMARK  184  A    between atoms: _436  and  _438
REMARK  185  A    between atoms: _438  and  _439
REMARK  186  A    between atoms: _438  and  _441
REMARK  187  A    between atoms: _441  and  _442
REMARK  188  A    between atoms: _446  and  _447
REMARK  189  A    between atoms: _452  and  _454
REMARK  190  A    between atoms: _454  and  _455
REMARK  191  A    between atoms: _454  and  _457
REMARK  192  A    between atoms: _457  and  _458
REMARK  193  A    between atoms: _463  and  _465
REMARK  194  A    between atoms: _465  and  _466
REMARK  195  A    between atoms: _465  and  _468
REMARK  196  A    between atoms: _468  and  _469
REMARK  197  A    between atoms: _474  and  _475
REMARK  198  A    between atoms: _477  and  _479
REMARK  199  A    between atoms: _479  and  _480
REMARK  200  A    between atoms: _479  and  _482
REMARK  201  A    between atoms: _484  and  _486
REMARK  202  A    between atoms: _486  and  _487
REMARK  203  A    between atoms: _486  and  _489
REMARK  204  A    between atoms: _489  and  _490
REMARK  205  A    between atoms: _490  and  _491
REMARK  206  A    between atoms: _491  and  _492
REMARK  207  A    between atoms: _492  and  _493
REMARK  208  A    between atoms: _497  and  _499
REMARK  209  A    between atoms: _499  and  _500
REMARK  210  A    between atoms: _499  and  _502
REMARK  211  A    between atoms: _502  and  _503
REMARK  212  A    between atoms: _503  and  _504
REMARK  213  A    between atoms: _507  and  _509
REMARK  214  A    between atoms: _509  and  _510
REMARK  215  A    between atoms: _509  and  _512
REMARK  216  A    between atoms: _514  and  _516
REMARK  217  A    between atoms: _516  and  _517
REMARK  218  A    between atoms: _520  and  _521
REMARK  219  A    between atoms: _526  and  _528
REMARK  220  A    between atoms: _528  and  _529
REMARK  221  A    between atoms: _528  and  _531
REMARK  222  A    between atoms: _534  and  _536
REMARK  223  A    between atoms: _536  and  _537
REMARK  224  A    between atoms: _536  and  _539
REMARK  225  A    between atoms: _539  and  _540
REMARK  226  A    between atoms: _543  and  _545
REMARK  227  A    between atoms: _545  and  _546
REMARK  228  A    between atoms: _545  and  _548
REMARK  229  A    between atoms: _548  and  _549
REMARK  230  A    between atoms: _555  and  _557
REMARK  231  A    between atoms: _557  and  _558
REMARK  232  A    between atoms: _557  and  _560
REMARK  233  A    between atoms: _560  and  _561
REMARK  234  A    between atoms: _561  and  _562
REMARK  235  A    between atoms: _564  and  _566
REMARK  236  A    between atoms: _566  and  _567
REMARK  237  A    between atoms: _566  and  _569
REMARK  238  A    between atoms: _569  and  _570
REMARK  239  A    between atoms: _570  and  _571
REMARK  240  A    between atoms: _574  and  _576
REMARK  241  A    between atoms: _576  and  _577
REMARK  242  A    between atoms: _576  and  _579
REMARK  243  A    between atoms: _579  and  _580
REMARK  244  A    between atoms: _580  and  _581
REMARK  245  A    between atoms: _581  and  _582
REMARK  246  A    between atoms: _582  and  _583
REMARK  247  A    between atoms: _587  and  _589
REMARK  248  A    between atoms: _589  and  _590
REMARK  249  A    between atoms: _589  and  _592
REMARK  250  A    between atoms: _592  and  _593
REMARK  251  A    between atoms: _598  and  _599
REMARK  252  A    between atoms: _601  and  _603
REMARK  253  A    between atoms: _603  and  _604
REMARK  254  A    between atoms: _603  and  _606
REMARK  255  A    between atoms: _606  and  _607
REMARK  256  A    between atoms: _610  and  _612
REMARK  257  A    between atoms: _612  and  _613
REMARK  258  A    between atoms: _612  and  _615
REMARK  259  A    between atoms: _615  and  _616
REMARK  260  A    between atoms: _621  and  _623
REMARK  261  A    between atoms: _623  and  _624
REMARK  262  A    between atoms: _623  and  _626
REMARK  263  A    between atoms: _626  and  _627
REMARK  264  A    between atoms: _629  and  _631
REMARK  265  A    between atoms: _631  and  _632
REMARK  266  A    between atoms: _631  and  _634
REMARK  267  A    between atoms: _634  and  _635
REMARK  268  A    between atoms: _635  and  _636
REMARK  269  A    between atoms: _636  and  _637
REMARK  270  A    between atoms: _637  and  _638
REMARK  271  A    between atoms: _642  and  _644
REMARK  272  A    between atoms: _644  and  _645
REMARK  273  A    between atoms: _644  and  _647
REMARK  274  A    between atoms: _647  and  _648
REMARK  275  A    between atoms: _648  and  _649
REMARK  276  A    between atoms: _654  and  _656
REMARK  277  A    between atoms: _656  and  _657
REMARK  278  A    between atoms: _656  and  _659
REMARK  279  A    between atoms: _662  and  _664
REMARK  280  A    between atoms: _664  and  _665
REMARK  281  A    between atoms: _664  and  _667
REMARK  282  A    between atoms: _667  and  _668
REMARK  283  A    between atoms: _674  and  _676
REMARK  284  A    between atoms: _676  and  _677
REMARK  285  A    between atoms: _680  and  _682
REMARK  286  A    between atoms: _682  and  _683
REMARK  287  A    between atoms: _682  and  _685
REMARK  288  A    between atoms: _685  and  _686
REMARK  289  A    between atoms: _689  and  _691
REMARK  290  A    between atoms: _691  and  _692
REMARK  291  A    between atoms: _691  and  _694
REMARK  292  A    between atoms: _694  and  _695
REMARK  293  A    between atoms: _695  and  _696
REMARK  294  A    between atoms: _696  and  _697
REMARK  295  A    between atoms: _706  and  _708
REMARK  296  A    between atoms: _708  and  _709
REMARK  297  A    between atoms: _708  and  _711
REMARK  298  A    between atoms: _711  and  _712
REMARK  299  A    between atoms: _718  and  _720
REMARK  300  A    between atoms: _720  and  _721
REMARK  301  A    between atoms: _720  and  _723
REMARK  302  A    between atoms: _723  and  _724
REMARK  303  A    between atoms: _727  and  _729
REMARK  304  A    between atoms: _729  and  _730
REMARK  305  A    between atoms: _729  and  _732
REMARK  306  A    between atoms: _732  and  _733
REMARK  307  A    between atoms: _738  and  _739
REMARK  308  A    between atoms: _741  and  _743
REMARK  309  A    between atoms: _743  and  _744
REMARK  310  A    between atoms: _747  and  _749
REMARK  311  A    between atoms: _749  and  _750
REMARK  312  A    between atoms: _749  and  _752
REMARK  313  A    between atoms: _752  and  _753
REMARK  314  A    between atoms: _753  and  _754
REMARK  315  A    between atoms: _756  and  _758
REMARK  316  A    between atoms: _758  and  _759
REMARK  317  A    between atoms: _758  and  _761
REMARK  318  A    between atoms: _761  and  _762
REMARK  319  A    between atoms: _767  and  _769
REMARK  320  A    between atoms: _769  and  _770
REMARK  321  A    between atoms: _769  and  _772
REMARK  322  A    between atoms: _772  and  _773
REMARK  323  A    between atoms: _773  and  _774
REMARK  324  A    between atoms: _774  and  _775
REMARK  325  A    between atoms: _784  and  _786
REMARK  326  A    between atoms: _786  and  _787
REMARK  327  A    between atoms: _786  and  _789
REMARK  328  A    between atoms: _789  and  _790
REMARK  329  A    between atoms: _790  and  _791
REMARK  330  A    between atoms: _794  and  _796
REMARK  331  A    between atoms: _796  and  _797
REMARK  332  A    between atoms: _796  and  _799
REMARK  333  A    between atoms: _802  and  _804
REMARK  334  A    between atoms: _804  and  _805
REMARK  335  A    between atoms: _804  and  _807
REMARK  336  A    between atoms: _807  and  _808
REMARK                            x       y       z     vdW  Elec       q    Type
REMARK                         _______ _______ _______ _____ _____    ______ ____
ROOT
ATOM      1  O   HOH     1      18.111 -11.572  -4.184  0.00  0.00    +0.000 OA
ENDROOT
TORSDOF 0
REMARK  Name = ../refined-set-2016/1i5r/1i5r_pocket.pdb
REMARK  336 active torsions:
REMARK  status: ('A' for Active; 'I' for Inactive)
REMARK    1  A    between atoms: _1  and  _3
REMARK    2  A    between atoms: _3  and  _4
REMARK    3  A    between atoms: _3  and  _6
REMARK    4  A    between atoms: _6  and  _7
REMARK    5  A    between atoms: _10  and  _12
REMARK    6  A    between atoms: _12  and  _13
REMARK    7  A    between atoms: _12  and  _15
REMARK    8  A    between atoms: _15  and  _16
REMARK    9  A    between atoms: _19  and  _21
REMARK   10  A    between atoms: _21  and  _22
REMARK   11  A    between atoms: _24  and  _26
REMARK   12  A    between atoms: _26  and  _27
REMARK   13  A    between atoms: _26  and  _29
REMARK   14  A    between atoms: _31  and  _33
REMARK   15  A    between atoms: _33  and  _34
REMARK   16  A    between atoms: _33  and  _36
REMARK   17  A    between atoms: _36  and  _37
REMARK   18  A    between atoms: _39  and  _41
REMARK   19  A    between atoms: _41  and  _42
REMARK   20  A    between atoms: _41  and  _44
REMARK   21  A    between atoms: _44  and  _45
REMARK   22  A    between atoms: _47  and  _49
REMARK   23  A    between atoms: _49  and  _50
REMARK   24  A    between atoms: _52  and  _54
REMARK   25  A    between atoms: _54  and  _55
REMARK   26  A    between atoms: _54  and  _57
REMARK   27  A    between atoms: _57  and  _58
REMARK   28  A    between atoms: _61  and  _63
REMARK   29  A    between atoms: _63  and  _64
REMARK   30  A    between atoms: _66  and  _68
REMARK   31  A    between atoms: _68  and  _69
REMARK   32  A    between atoms: _68  and  _71
REMARK   33  A    between atoms: _71  and  _72
REMARK   34  A    between atoms: _75  and  _77
REMARK   35  A    between atoms: _77  and  _78
REMARK   36  A    between atoms: _77  and  _80
REMARK   37  A    between atoms: _80  and  _81
REMARK   38  A    between atoms: _86  and  _88
REMARK   39  A    between atoms: _88  and  _89
REMARK   40  A    between atoms: _88  and  _91
REMARK   41  A    between atoms: _91  and  _92
REMARK   42  A    between atoms: _95  and  _97
REMARK   43  A    between atoms: _97  and  _98
REMARK   44  A    between atoms: _97  and  _100
REMARK   45  A    between atoms: _100  and  _101
REMARK   46  A    between atoms: _104  and  _106
REMARK   47  A    between atoms: _106  and  _107
REMARK   48  A    between atoms: _106  and  _109
REMARK   49  A    between atoms: _109  and  _110
REMARK   50  A    between atoms: _110  and  _111
REMARK   51  A    between atoms: _111  and  _112
REMARK   52  A    between atoms: _121  and  _123
REMARK   53  A    between atoms: _123  and  _124
REMARK   54  A    between atoms: _123  and  _126
REMARK   55  A    between atoms: _126  and  _127
REMARK   56  A    between atoms: _130  and  _132
REMARK   57  A    between atoms: _132  and  _133
REMARK   58  A    between atoms: _132  and  _135
REMARK   59  A    between atoms: _135  and  _136
REMARK   60  A    between atoms: _139  and  _141
REMARK   61  A    between atoms: _141  and  _142
REMARK   62  A    between atoms: _141  and  _144
REMARK   63  A    between atoms: _144  and  _145
REMARK   64  A    between atoms: _145  and  _146
REMARK   65  A    between atoms: _146  and  _147
REMARK   66  A    between atoms: _156  and  _158
REMARK   67  A    between atoms: _158  and  _159
REMARK   68  A    between atoms: _158  and  _161
REMARK   69  A    between atoms: _161  and  _162
REMARK   70  A    between atoms: _165  and  _167
REMARK   71  A    between atoms: _167  and  _168
REMARK   72  A    between atoms: _167  and  _170
REMARK   73  A    between atoms: _170  and  _171
REMARK   74  A    between atoms: _171  and  _172
REMARK   75  A    between atoms: _177  and  _179
REMARK   76  A    between atoms: _179  and  _180
REMARK   77  A    between atoms: _179  and  _182
REMARK   78  A    between atoms: _182  and  _183
REMARK   79  A    between atoms: _186  and  _188
REMARK   80  A    between atoms: _188  and  _189
REMARK   81  A    between atoms: _188  and  _191
REMARK   82  A    between atoms: _191  and  _192
REMARK   83  A    between atoms: _195  and  _197
REMARK   84  A    between atoms: _197  and  _198
REMARK   85  A    between atoms: _197  and  _200
REMARK   86  A    between atoms: _203  and  _205
REMARK   87  A    between atoms: _205  and  _206
REMARK   88  A    between atoms: _205  and  _208
REMARK   89  A    between atoms: _208  and  _209
REMARK   90  A    between atoms: _209  and  _210
REMARK   91  A    between atoms: _210  and  _211
REMARK   92  A    between atoms: _220  and  _222
REMARK   93  A    between atoms: _222  and  _223
REMARK   94  A    between atoms: _222  and  _225
REMARK   95  A    between atoms: _225  and  _226
REMARK   96  A    between atoms: _229  and  _231
REMARK   97  A    between atoms: _231  and  _232
REMARK   98  A    between atoms: _231  and  _234
REMARK   99  A    between atoms: _234  and  _235
REMARK  100  A    between atoms: _237  and  _239
REMARK  101  A    between atoms: _239  and  _240
REMARK  102  A    between atoms: _239  and  _242
REMARK  103  A    between atoms: _245  and  _247
REMARK  104  A    between atoms: _247  and  _248
REMARK  105  A    between atoms: _247  and  _250
REMARK  106  A    between atoms: _252  and  _254
REMARK  107  A    between atoms: _254  and  _255
REMARK  108  A    between atoms: _254  and  _257
REMARK  109  A    between atoms: _257  and  _258
REMARK  110  A    between atoms: _263  and  _265
REMARK  111  A    between atoms: _265  and  _266
REMARK  112  A    between atoms: _269  and  _271
REMARK  113  A    between atoms: _271  and  _272
REMARK  114  A    between atoms: _274  and  _276
REMARK  115  A    between atoms: _276  and  _277
REMARK  116  A    between atoms: _276  and  _279
REMARK  117  A    between atoms: _279  and  _280
REMARK  118  A    between atoms: _283  and  _285
REMARK  119  A    between atoms: _285  and  _286
REMARK  120  A    between atoms: _288  and  _290
REMARK  121  A    between atoms: _290  and  _291
REMARK  122  A    between atoms: _290  and  _293
REMARK  123  A    between atoms: _293  and  _294
REMARK  124  A    between atoms: _297  and  _299
REMARK  125  A    between atoms: _299  and  _300
REMARK  126  A    between atoms: _299  and  _302
REMARK  127  A    between atoms: _302  and  _303
REMARK  128  A    between atoms: _306  and  _308
REMARK  129  A    between atoms: _308  and  _309
REMARK  130  A    between atoms: _308  and  _311
REMARK  131  A    between atoms: _311  and  _312
REMARK  132  A    between atoms: _314  and  _316
REMARK  133  A    between atoms: _316  and  _317
REMARK  134  A    between atoms: _316  and  _319
REMARK  135  A    between atoms: _319  and  _320
REMARK  136  A    between atoms: _323  and  _325
REMARK  137  A    between atoms: _325  and  _326
REMARK  138  A    between atoms: _325  and  _328
REMARK  139  A    between atoms: _331  and  _333
REMARK  140  A    between atoms: _333  and  _334
REMARK  141  A    between atoms: _333  and  _336
REMARK  142  A    between atoms: _336  and  _337
REMARK  143  A    between atoms: _342  and  _344
REMARK  144  A    between atoms: _344  and  _345
REMARK  145  A    between atoms: _347  and  _349
REMARK  146  A    between atoms: _349  and  _350
REMARK  147  A    between atoms: _349  and  _352
REMARK  148  A    between atoms: _352  and  _353
REMARK  149  A    between atoms: _353  and  _354
REMARK  150  A    between atoms: _354  and  _355
REMARK  151  A    between atoms: _364  and  _366
REMARK  152  A    between atoms: _366  and  _367
REMARK  153  A    between atoms: _366  and  _369
REMARK  154  A    between atoms: _369  and  _370
REMARK  155  A    between atoms: _370  and  _371
REMARK  156  A    between atoms: _373  and  _375
REMARK  157  A    between atoms: _375  and  _376
REMARK  158  A    between atoms: _375  and  _378
REMARK  159  A    between atoms: _378  and  _379
REMARK  160  A    between atoms: _382  and  _384
REMARK  161  A    between atoms: _384  and  _385
REMARK  162  A    between atoms: _387  and  _389
REMARK  163  A    between atoms: _389  and  _390
REMARK  164  A    between atoms: _389  and  _392
REMARK  165  A    between atoms: _392  and  _393
REMARK  166  A    between atoms: _395  and  _397
REMARK  167  A    between atoms: _397  and  _398
REMARK  168  A    between atoms: _397  and  _400
REMARK  169  A    between atoms: _403  and  _405
REMARK  170  A    between atoms: _405  and  _406
REMARK  171  A    between atoms: _408  and  _410
REMARK  172  A    between atoms: _410  and  _411
REMARK  173  A    between atoms: _413  and  _415
REMARK  174  A    between atoms: _415  and  _416
REMARK  175  A    between atoms: _415  and  _418
REMARK  176  A    between atoms: _418  and  _419
REMARK  177  A    between atoms: _422  and  _424
REMARK  178  A    between atoms: _424  and  _425
REMARK  179  A    between atoms: _424  and  _427
REMARK  180  A    between atoms: _427  and  _428
REMARK  181  A    between atoms: _428  and  _429
REMARK  182  A    between atoms: _431  and  _433
REMARK  183  A    between atoms: _433  and  _434
REMARK  184  A    between atoms: _436  and  _438
REMARK  185  A    between atoms: _438  and  _439
REMARK  186  A    between atoms: _438  and  _441
REMARK  187  A    between atoms: _441  and  _442
REMARK  188  A    between atoms: _446  and  _447
REMARK  189  A    between atoms: _452  and  _454
REMARK  190  A    between atoms: _454  and  _455
REMARK  191  A    between atoms: _454  and  _457
REMARK  192  A    between atoms: _457  and  _458
REMARK  193  A    between atoms: _463  and  _465
REMARK  194  A    between atoms: _465  and  _466
REMARK  195  A    between atoms: _465  and  _468
REMARK  196  A    between atoms: _468  and  _469
REMARK  197  A    between atoms: _474  and  _475
REMARK  198  A    between atoms: _477  and  _479
REMARK  199  A    between atoms: _479  and  _480
REMARK  200  A    between atoms: _479  and  _482
REMARK  201  A    between atoms: _484  and  _486
REMARK  202  A    between atoms: _486  and  _487
REMARK  203  A    between atoms: _486  and  _489
REMARK  204  A    between atoms: _489  and  _490
REMARK  205  A    between atoms: _490  and  _491
REMARK  206  A    between atoms: _491  and  _492
REMARK  207  A    between atoms: _492  and  _493
REMARK  208  A    between atoms: _497  and  _499
REMARK  209  A    between atoms: _499  and  _500
REMARK  210  A    between atoms: _499  and  _502
REMARK  211  A    between atoms: _502  and  _503
REMARK  212  A    between atoms: _503  and  _504
REMARK  213  A    between atoms: _507  and  _509
REMARK  214  A    between atoms: _509  and  _510
REMARK  215  A    between atoms: _509  and  _512
REMARK  216  A    between atoms: _514  and  _516
REMARK  217  A    between atoms: _516  and  _517
REMARK  218  A    between atoms: _520  and  _521
REMARK  219  A    between atoms: _526  and  _528
REMARK  220  A    between atoms: _528  and  _529
REMARK  221  A    between atoms: _528  and  _531
REMARK  222  A    between atoms: _534  and  _536
REMARK  223  A    between atoms: _536  and  _537
REMARK  224  A    between atoms: _536  and  _539
REMARK  225  A    between atoms: _539  and  _540
REMARK  226  A    between atoms: _543  and  _545
REMARK  227  A    between atoms: _545  and  _546
REMARK  228  A    between atoms: _545  and  _548
REMARK  229  A    between atoms: _548  and  _549
REMARK  230  A    between atoms: _555  and  _557
REMARK  231  A    between atoms: _557  and  _558
REMARK  232  A    between atoms: _557  and  _560
REMARK  233  A    between atoms: _560  and  _561
REMARK  234  A    between atoms: _561  and  _562
REMARK  235  A    between atoms: _564  and  _566
REMARK  236  A    between atoms: _566  and  _567
REMARK  237  A    between atoms: _566  and  _569
REMARK  238  A    between atoms: _569  and  _570
REMARK  239  A    between atoms: _570  and  _571
REMARK  240  A    between atoms: _574  and  _576
REMARK  241  A    between atoms: _576  and  _577
REMARK  242  A    between atoms: _576  and  _579
REMARK  243  A    between atoms: _579  and  _580
REMARK  244  A    between atoms: _580  and  _581
REMARK  245  A    between atoms: _581  and  _582
REMARK  246  A    between atoms: _582  and  _583
REMARK  247  A    between atoms: _587  and  _589
REMARK  248  A    between atoms: _589  and  _590
REMARK  249  A    between atoms: _589  and  _592
REMARK  250  A    between atoms: _592  and  _593
REMARK  251  A    between atoms: _598  and  _599
REMARK  252  A    between atoms: _601  and  _603
REMARK  253  A    between atoms: _603  and  _604
REMARK  254  A    between atoms: _603  and  _606
REMARK  255  A    between atoms: _606  and  _607
REMARK  256  A    between atoms: _610  and  _612
REMARK  257  A    between atoms: _612  and  _613
REMARK  258  A    between atoms: _612  and  _615
REMARK  259  A    between atoms: _615  and  _616
REMARK  260  A    between atoms: _621  and  _623
REMARK  261  A    between atoms: _623  and  _624
REMARK  262  A    between atoms: _623  and  _626
REMARK  263  A    between atoms: _626  and  _627
REMARK  264  A    between atoms: _629  and  _631
REMARK  265  A    between atoms: _631  and  _632
REMARK  266  A    between atoms: _631  and  _634
REMARK  267  A    between atoms: _634  and  _635
REMARK  268  A    between atoms: _635  and  _636
REMARK  269  A    between atoms: _636  and  _637
REMARK  270  A    between atoms: _637  and  _638
REMARK  271  A    between atoms: _642  and  _644
REMARK  272  A    between atoms: _644  and  _645
REMARK  273  A    between atoms: _644  and  _647
REMARK  274  A    between atoms: _647  and  _648
REMARK  275  A    between atoms: _648  and  _649
REMARK  276  A    between atoms: _654  and  _656
REMARK  277  A    between atoms: _656  and  _657
REMARK  278  A    between atoms: _656  and  _659
REMARK  279  A    between atoms: _662  and  _664
REMARK  280  A    between atoms: _664  and  _665
REMARK  281  A    between atoms: _664  and  _667
REMARK  282  A    between atoms: _667  and  _668
REMARK  283  A    between atoms: _674  and  _676
REMARK  284  A    between atoms: _676  and  _677
REMARK  285  A    between atoms: _680  and  _682
REMARK  286  A    between atoms: _682  and  _683
REMARK  287  A    between atoms: _682  and  _685
REMARK  288  A    between atoms: _685  and  _686
REMARK  289  A    between atoms: _689  and  _691
REMARK  290  A    between atoms: _691  and  _692
REMARK  291  A    between atoms: _691  and  _694
REMARK  292  A    between atoms: _694  and  _695
REMARK  293  A    between atoms: _695  and  _696
REMARK  294  A    between atoms: _696  and  _697
REMARK  295  A    between atoms: _706  and  _708
REMARK  296  A    between atoms: _708  and  _709
REMARK  297  A    between atoms: _708  and  _711
REMARK  298  A    between atoms: _711  and  _712
REMARK  299  A    between atoms: _718  and  _720
REMARK  300  A    between atoms: _720  and  _721
REMARK  301  A    between atoms: _720  and  _723
REMARK  302  A    between atoms: _723  and  _724
REMARK  303  A    between atoms: _727  and  _729
REMARK  304  A    between atoms: _729  and  _730
REMARK  305  A    between atoms: _729  and  _732
REMARK  306  A    between atoms: _732  and  _733
REMARK  307  A    between atoms: _738  and  _739
REMARK  308  A    between atoms: _741  and  _743
REMARK  309  A    between atoms: _743  and  _744
REMARK  310  A    between atoms: _747  and  _749
REMARK  311  A    between atoms: _749  and  _750
REMARK  312  A    between atoms: _749  and  _752
REMARK  313  A    between atoms: _752  and  _753
REMARK  314  A    between atoms: _753  and  _754
REMARK  315  A    between atoms: _756  and  _758
REMARK  316  A    between atoms: _758  and  _759
REMARK  317  A    between atoms: _758  and  _761
REMARK  318  A    between atoms: _761  and  _762
REMARK  319  A    between atoms: _767  and  _769
REMARK  320  A    between atoms: _769  and  _770
REMARK  321  A    between atoms: _769  and  _772
REMARK  322  A    between atoms: _772  and  _773
REMARK  323  A    between atoms: _773  and  _774
REMARK  324  A    between atoms: _774  and  _775
REMARK  325  A    between atoms: _784  and  _786
REMARK  326  A    between atoms: _786  and  _787
REMARK  327  A    between atoms: _786  and  _789
REMARK  328  A    between atoms: _789  and  _790
REMARK  329  A    between atoms: _790  and  _791
REMARK  330  A    between atoms: _794  and  _796
REMARK  331  A    between atoms: _796  and  _797
REMARK  332  A    between atoms: _796  and  _799
REMARK  333  A    between atoms: _802  and  _804
REMARK  334  A    between atoms: _804  and  _805
REMARK  335  A    between atoms: _804  and  _807
REMARK  336  A    between atoms: _807  and  _808
REMARK                            x       y       z     vdW  Elec       q    Type
REMARK                         _______ _______ _______ _____ _____    ______ ____
ROOT
ATOM      1  O   HOH     1      16.618  13.171  -8.399  0.00  0.00    +0.000 OA
ENDROOT
TORSDOF 0
REMARK  Name = ../refined-set-2016/1i5r/1i5r_pocket.pdb
REMARK  336 active torsions:
REMARK  status: ('A' for Active; 'I' for Inactive)
REMARK    1  A    between atoms: _1  and  _3
REMARK    2  A    between atoms: _3  and  _4
REMARK    3  A    between atoms: _3  and  _6
REMARK    4  A    between atoms: _6  and  _7
REMARK    5  A    between atoms: _10  and  _12
REMARK    6  A    between atoms: _12  and  _13
REMARK    7  A    between atoms: _12  and  _15
REMARK    8  A    between atoms: _15  and  _16
REMARK    9  A    between atoms: _19  and  _21
REMARK   10  A    between atoms: _21  and  _22
REMARK   11  A    between atoms: _24  and  _26
REMARK   12  A    between atoms: _26  and  _27
REMARK   13  A    between atoms: _26  and  _29
REMARK   14  A    between atoms: _31  and  _33
REMARK   15  A    between atoms: _33  and  _34
REMARK   16  A    between atoms: _33  and  _36
REMARK   17  A    between atoms: _36  and  _37
REMARK   18  A    between atoms: _39  and  _41
REMARK   19  A    between atoms: _41  and  _42
REMARK   20  A    between atoms: _41  and  _44
REMARK   21  A    between atoms: _44  and  _45
REMARK   22  A    between atoms: _47  and  _49
REMARK   23  A    between atoms: _49  and  _50
REMARK   24  A    between atoms: _52  and  _54
REMARK   25  A    between atoms: _54  and  _55
REMARK   26  A    between atoms: _54  and  _57
REMARK   27  A    between atoms: _57  and  _58
REMARK   28  A    between atoms: _61  and  _63
REMARK   29  A    between atoms: _63  and  _64
REMARK   30  A    between atoms: _66  and  _68
REMARK   31  A    between atoms: _68  and  _69
REMARK   32  A    between atoms: _68  and  _71
REMARK   33  A    between atoms: _71  and  _72
REMARK   34  A    between atoms: _75  and  _77
REMARK   35  A    between atoms: _77  and  _78
REMARK   36  A    between atoms: _77  and  _80
REMARK   37  A    between atoms: _80  and  _81
REMARK   38  A    between atoms: _86  and  _88
REMARK   39  A    between atoms: _88  and  _89
REMARK   40  A    between atoms: _88  and  _91
REMARK   41  A    between atoms: _91  and  _92
REMARK   42  A    between atoms: _95  and  _97
REMARK   43  A    between atoms: _97  and  _98
REMARK   44  A    between atoms: _97  and  _100
REMARK   45  A    between atoms: _100  and  _101
REMARK   46  A    between atoms: _104  and  _106
REMARK   47  A    between atoms: _106  and  _107
REMARK   48  A    between atoms: _106  and  _109
REMARK   49  A    between atoms: _109  and  _110
REMARK   50  A    between atoms: _110  and  _111
REMARK   51  A    between atoms: _111  and  _112
REMARK   52  A    between atoms: _121  and  _123
REMARK   53  A    between atoms: _123  and  _124
REMARK   54  A    between atoms: _123  and  _126
REMARK   55  A    between atoms: _126  and  _127
REMARK   56  A    between atoms: _130  and  _132
REMARK   57  A    between atoms: _132  and  _133
REMARK   58  A    between atoms: _132  and  _135
REMARK   59  A    between atoms: _135  and  _136
REMARK   60  A    between atoms: _139  and  _141
REMARK   61  A    between atoms: _141  and  _142
REMARK   62  A    between atoms: _141  and  _144
REMARK   63  A    between atoms: _144  and  _145
REMARK   64  A    between atoms: _145  and  _146
REMARK   65  A    between atoms: _146  and  _147
REMARK   66  A    between atoms: _156  and  _158
REMARK   67  A    between atoms: _158  and  _159
REMARK   68  A    between atoms: _158  and  _161
REMARK   69  A    between atoms: _161  and  _162
REMARK   70  A    between atoms: _165  and  _167
REMARK   71  A    between atoms: _167  and  _168
REMARK   72  A    between atoms: _167  and  _170
REMARK   73  A    between atoms: _170  and  _171
REMARK   74  A    between atoms: _171  and  _172
REMARK   75  A    between atoms: _177  and  _179
REMARK   76  A    between atoms: _179  and  _180
REMARK   77  A    between atoms: _179  and  _182
REMARK   78  A    between atoms: _182  and  _183
REMARK   79  A    between atoms: _186  and  _188
REMARK   80  A    between atoms: _188  and  _189
REMARK   81  A    between atoms: _188  and  _191
REMARK   82  A    between atoms: _191  and  _192
REMARK   83  A    between atoms: _195  and  _197
REMARK   84  A    between atoms: _197  and  _198
REMARK   85  A    between atoms: _197  and  _200
REMARK   86  A    between atoms: _203  and  _205
REMARK   87  A    between atoms: _205  and  _206
REMARK   88  A    between atoms: _205  and  _208
REMARK   89  A    between atoms: _208  and  _209
REMARK   90  A    between atoms: _209  and  _210
REMARK   91  A    between atoms: _210  and  _211
REMARK   92  A    between atoms: _220  and  _222
REMARK   93  A    between atoms: _222  and  _223
REMARK   94  A    between atoms: _222  and  _225
REMARK   95  A    between atoms: _225  and  _226
REMARK   96  A    between atoms: _229  and  _231
REMARK   97  A    between atoms: _231  and  _232
REMARK   98  A    between atoms: _231  and  _234
REMARK   99  A    between atoms: _234  and  _235
REMARK  100  A    between atoms: _237  and  _239
REMARK  101  A    between atoms: _239  and  _240
REMARK  102  A    between atoms: _239  and  _242
REMARK  103  A    between atoms: _245  and  _247
REMARK  104  A    between atoms: _247  and  _248
REMARK  105  A    between atoms: _247  and  _250
REMARK  106  A    between atoms: _252  and  _254
REMARK  107  A    between atoms: _254  and  _255
REMARK  108  A    between atoms: _254  and  _257
REMARK  109  A    between atoms: _257  and  _258
REMARK  110  A    between atoms: _263  and  _265
REMARK  111  A    between atoms: _265  and  _266
REMARK  112  A    between atoms: _269  and  _271
REMARK  113  A    between atoms: _271  and  _272
REMARK  114  A    between atoms: _274  and  _276
REMARK  115  A    between atoms: _276  and  _277
REMARK  116  A    between atoms: _276  and  _279
REMARK  117  A    between atoms: _279  and  _280
REMARK  118  A    between atoms: _283  and  _285
REMARK  119  A    between atoms: _285  and  _286
REMARK  120  A    between atoms: _288  and  _290
REMARK  121  A    between atoms: _290  and  _291
REMARK  122  A    between atoms: _290  and  _293
REMARK  123  A    between atoms: _293  and  _294
REMARK  124  A    between atoms: _297  and  _299
REMARK  125  A    between atoms: _299  and  _300
REMARK  126  A    between atoms: _299  and  _302
REMARK  127  A    between atoms: _302  and  _303
REMARK  128  A    between atoms: _306  and  _308
REMARK  129  A    between atoms: _308  and  _309
REMARK  130  A    between atoms: _308  and  _311
REMARK  131  A    between atoms: _311  and  _312
REMARK  132  A    between atoms: _314  and  _316
REMARK  133  A    between atoms: _316  and  _317
REMARK  134  A    between atoms: _316  and  _319
REMARK  135  A    between atoms: _319  and  _320
REMARK  136  A    between atoms: _323  and  _325
REMARK  137  A    between atoms: _325  and  _326
REMARK  138  A    between atoms: _325  and  _328
REMARK  139  A    between atoms: _331  and  _333
REMARK  140  A    between atoms: _333  and  _334
REMARK  141  A    between atoms: _333  and  _336
REMARK  142  A    between atoms: _336  and  _337
REMARK  143  A    between atoms: _342  and  _344
REMARK  144  A    between atoms: _344  and  _345
REMARK  145  A    between atoms: _347  and  _349
REMARK  146  A    between atoms: _349  and  _350
REMARK  147  A    between atoms: _349  and  _352
REMARK  148  A    between atoms: _352  and  _353
REMARK  149  A    between atoms: _353  and  _354
REMARK  150  A    between atoms: _354  and  _355
REMARK  151  A    between atoms: _364  and  _366
REMARK  152  A    between atoms: _366  and  _367
REMARK  153  A    between atoms: _366  and  _369
REMARK  154  A    between atoms: _369  and  _370
REMARK  155  A    between atoms: _370  and  _371
REMARK  156  A    between atoms: _373  and  _375
REMARK  157  A    between atoms: _375  and  _376
REMARK  158  A    between atoms: _375  and  _378
REMARK  159  A    between atoms: _378  and  _379
REMARK  160  A    between atoms: _382  and  _384
REMARK  161  A    between atoms: _384  and  _385
REMARK  162  A    between atoms: _387  and  _389
REMARK  163  A    between atoms: _389  and  _390
REMARK  164  A    between atoms: _389  and  _392
REMARK  165  A    between atoms: _392  and  _393
REMARK  166  A    between atoms: _395  and  _397
REMARK  167  A    between atoms: _397  and  _398
REMARK  168  A    between atoms: _397  and  _400
REMARK  169  A    between atoms: _403  and  _405
REMARK  170  A    between atoms: _405  and  _406
REMARK  171  A    between atoms: _408  and  _410
REMARK  172  A    between atoms: _410  and  _411
REMARK  173  A    between atoms: _413  and  _415
REMARK  174  A    between atoms: _415  and  _416
REMARK  175  A    between atoms: _415  and  _418
REMARK  176  A    between atoms: _418  and  _419
REMARK  177  A    between atoms: _422  and  _424
REMARK  178  A    between atoms: _424  and  _425
REMARK  179  A    between atoms: _424  and  _427
REMARK  180  A    between atoms: _427  and  _428
REMARK  181  A    between atoms: _428  and  _429
REMARK  182  A    between atoms: _431  and  _433
REMARK  183  A    between atoms: _433  and  _434
REMARK  184  A    between atoms: _436  and  _438
REMARK  185  A    between atoms: _438  and  _439
REMARK  186  A    between atoms: _438  and  _441
REMARK  187  A    between atoms: _441  and  _442
REMARK  188  A    between atoms: _446  and  _447
REMARK  189  A    between atoms: _452  and  _454
REMARK  190  A    between atoms: _454  and  _455
REMARK  191  A    between atoms: _454  and  _457
REMARK  192  A    between atoms: _457  and  _458
REMARK  193  A    between atoms: _463  and  _465
REMARK  194  A    between atoms: _465  and  _466
REMARK  195  A    between atoms: _465  and  _468
REMARK  196  A    between atoms: _468  and  _469
REMARK  197  A    between atoms: _474  and  _475
REMARK  198  A    between atoms: _477  and  _479
REMARK  199  A    between atoms: _479  and  _480
REMARK  200  A    between atoms: _479  and  _482
REMARK  201  A    between atoms: _484  and  _486
REMARK  202  A    between atoms: _486  and  _487
REMARK  203  A    between atoms: _486  and  _489
REMARK  204  A    between atoms: _489  and  _490
REMARK  205  A    between atoms: _490  and  _491
REMARK  206  A    between atoms: _491  and  _492
REMARK  207  A    between atoms: _492  and  _493
REMARK  208  A    between atoms: _497  and  _499
REMARK  209  A    between atoms: _499  and  _500
REMARK  210  A    between atoms: _499  and  _502
REMARK  211  A    between atoms: _502  and  _503
REMARK  212  A    between atoms: _503  and  _504
REMARK  213  A    between atoms: _507  and  _509
REMARK  214  A    between atoms: _509  and  _510
REMARK  215  A    between atoms: _509  and  _512
REMARK  216  A    between atoms: _514  and  _516
REMARK  217  A    between atoms: _516  and  _517
REMARK  218  A    between atoms: _520  and  _521
REMARK  219  A    between atoms: _526  and  _528
REMARK  220  A    between atoms: _528  and  _529
REMARK  221  A    between atoms: _528  and  _531
REMARK  222  A    between atoms: _534  and  _536
REMARK  223  A    between atoms: _536  and  _537
REMARK  224  A    between atoms: _536  and  _539
REMARK  225  A    between atoms: _539  and  _540
REMARK  226  A    between atoms: _543  and  _545
REMARK  227  A    between atoms: _545  and  _546
REMARK  228  A    between atoms: _545  and  _548
REMARK  229  A    between atoms: _548  and  _549
REMARK  230  A    between atoms: _555  and  _557
REMARK  231  A    between atoms: _557  and  _558
REMARK  232  A    between atoms: _557  and  _560
REMARK  233  A    between atoms: _560  and  _561
REMARK  234  A    between atoms: _561  and  _562
REMARK  235  A    between atoms: _564  and  _566
REMARK  236  A    between atoms: _566  and  _567
REMARK  237  A    between atoms: _566  and  _569
REMARK  238  A    between atoms: _569  and  _570
REMARK  239  A    between atoms: _570  and  _571
REMARK  240  A    between atoms: _574  and  _576
REMARK  241  A    between atoms: _576  and  _577
REMARK  242  A    between atoms: _576  and  _579
REMARK  243  A    between atoms: _579  and  _580
REMARK  244  A    between atoms: _580  and  _581
REMARK  245  A    between atoms: _581  and  _582
REMARK  246  A    between atoms: _582  and  _583
REMARK  247  A    between atoms: _587  and  _589
REMARK  248  A    between atoms: _589  and  _590
REMARK  249  A    between atoms: _589  and  _592
REMARK  250  A    between atoms: _592  and  _593
REMARK  251  A    between atoms: _598  and  _599
REMARK  252  A    between atoms: _601  and  _603
REMARK  253  A    between atoms: _603  and  _604
REMARK  254  A    between atoms: _603  and  _606
REMARK  255  A    between atoms: _606  and  _607
REMARK  256  A    between atoms: _610  and  _612
REMARK  257  A    between atoms: _612  and  _613
REMARK  258  A    between atoms: _612  and  _615
REMARK  259  A    between atoms: _615  and  _616
REMARK  260  A    between atoms: _621  and  _623
REMARK  261  A    between atoms: _623  and  _624
REMARK  262  A    between atoms: _623  and  _626
REMARK  263  A    between atoms: _626  and  _627
REMARK  264  A    between atoms: _629  and  _631
REMARK  265  A    between atoms: _631  and  _632
REMARK  266  A    between atoms: _631  and  _634
REMARK  267  A    between atoms: _634  and  _635
REMARK  268  A    between atoms: _635  and  _636
REMARK  269  A    between atoms: _636  and  _637
REMARK  270  A    between atoms: _637  and  _638
REMARK  271  A    between atoms: _642  and  _644
REMARK  272  A    between atoms: _644  and  _645
REMARK  273  A    between atoms: _644  and  _647
REMARK  274  A    between atoms: _647  and  _648
REMARK  275  A    between atoms: _648  and  _649
REMARK  276  A    between atoms: _654  and  _656
REMARK  277  A    between atoms: _656  and  _657
REMARK  278  A    between atoms: _656  and  _659
REMARK  279  A    between atoms: _662  and  _664
REMARK  280  A    between atoms: _664  and  _665
REMARK  281  A    between atoms: _664  and  _667
REMARK  282  A    between atoms: _667  and  _668
REMARK  283  A    between atoms: _674  and  _676
REMARK  284  A    between atoms: _676  and  _677
REMARK  285  A    between atoms: _680  and  _682
REMARK  286  A    between atoms: _682  and  _683
REMARK  287  A    between atoms: _682  and  _685
REMARK  288  A    between atoms: _685  and  _686
REMARK  289  A    between atoms: _689  and  _691
REMARK  290  A    between atoms: _691  and  _692
REMARK  291  A    between atoms: _691  and  _694
REMARK  292  A    between atoms: _694  and  _695
REMARK  293  A    between atoms: _695  and  _696
REMARK  294  A    between atoms: _696  and  _697
REMARK  295  A    between atoms: _706  and  _708
REMARK  296  A    between atoms: _708  and  _709
REMARK  297  A    between atoms: _708  and  _711
REMARK  298  A    between atoms: _711  and  _712
REMARK  299  A    between atoms: _718  and  _720
REMARK  300  A    between atoms: _720  and  _721
REMARK  301  A    between atoms: _720  and  _723
REMARK  302  A    between atoms: _723  and  _724
REMARK  303  A    between atoms: _727  and  _729
REMARK  304  A    between atoms: _729  and  _730
REMARK  305  A    between atoms: _729  and  _732
REMARK  306  A    between atoms: _732  and  _733
REMARK  307  A    between atoms: _738  and  _739
REMARK  308  A    between atoms: _741  and  _743
REMARK  309  A    between atoms: _743  and  _744
REMARK  310  A    between atoms: _747  and  _749
REMARK  311  A    between atoms: _749  and  _750
REMARK  312  A    between atoms: _749  and  _752
REMARK  313  A    between atoms: _752  and  _753
REMARK  314  A    between atoms: _753  and  _754
REMARK  315  A    between atoms: _756  and  _758
REMARK  316  A    between atoms: _758  and  _759
REMARK  317  A    between atoms: _758  and  _761
REMARK  318  A    between atoms: _761  and  _762
REMARK  319  A    between atoms: _767  and  _769
REMARK  320  A    between atoms: _769  and  _770
REMARK  321  A    between atoms: _769  and  _772
REMARK  322  A    between atoms: _772  and  _773
REMARK  323  A    between atoms: _773  and  _774
REMARK  324  A    between atoms: _774  and  _775
REMARK  325  A    between atoms: _784  and  _786
REMARK  326  A    between atoms: _786  and  _787
REMARK  327  A    between atoms: _786  and  _789
REMARK  328  A    between atoms: _789  and  _790
REMARK  329  A    between atoms: _790  and  _791
REMARK  330  A    between atoms: _794  and  _796
REMARK  331  A    between atoms: _796  and  _797
REMARK  332  A    between atoms: _796  and  _799
REMARK  333  A    between atoms: _802  and  _804
REMARK  334  A    between atoms: _804  and  _805
REMARK  335  A    between atoms: _804  and  _807
REMARK  336  A    between atoms: _807  and  _808
REMARK                            x       y       z     vdW  Elec       q    Type
REMARK                         _______ _______ _______ _____ _____    ______ ____
ROOT
ATOM      1  O   HOH     1      25.875  -7.442  -2.671  0.00  0.00    +0.000 OA
ENDROOT
TORSDOF 0
REMARK  Name = ../refined-set-2016/1i5r/1i5r_pocket.pdb
REMARK  336 active torsions:
REMARK  status: ('A' for Active; 'I' for Inactive)
REMARK    1  A    between atoms: _1  and  _3
REMARK    2  A    between atoms: _3  and  _4
REMARK    3  A    between atoms: _3  and  _6
REMARK    4  A    between atoms: _6  and  _7
REMARK    5  A    between atoms: _10  and  _12
REMARK    6  A    between atoms: _12  and  _13
REMARK    7  A    between atoms: _12  and  _15
REMARK    8  A    between atoms: _15  and  _16
REMARK    9  A    between atoms: _19  and  _21
REMARK   10  A    between atoms: _21  and  _22
REMARK   11  A    between atoms: _24  and  _26
REMARK   12  A    between atoms: _26  and  _27
REMARK   13  A    between atoms: _26  and  _29
REMARK   14  A    between atoms: _31  and  _33
REMARK   15  A    between atoms: _33  and  _34
REMARK   16  A    between atoms: _33  and  _36
REMARK   17  A    between atoms: _36  and  _37
REMARK   18  A    between atoms: _39  and  _41
REMARK   19  A    between atoms: _41  and  _42
REMARK   20  A    between atoms: _41  and  _44
REMARK   21  A    between atoms: _44  and  _45
REMARK   22  A    between atoms: _47  and  _49
REMARK   23  A    between atoms: _49  and  _50
REMARK   24  A    between atoms: _52  and  _54
REMARK   25  A    between atoms: _54  and  _55
REMARK   26  A    between atoms: _54  and  _57
REMARK   27  A    between atoms: _57  and  _58
REMARK   28  A    between atoms: _61  and  _63
REMARK   29  A    between atoms: _63  and  _64
REMARK   30  A    between atoms: _66  and  _68
REMARK   31  A    between atoms: _68  and  _69
REMARK   32  A    between atoms: _68  and  _71
REMARK   33  A    between atoms: _71  and  _72
REMARK   34  A    between atoms: _75  and  _77
REMARK   35  A    between atoms: _77  and  _78
REMARK   36  A    between atoms: _77  and  _80
REMARK   37  A    between atoms: _80  and  _81
REMARK   38  A    between atoms: _86  and  _88
REMARK   39  A    between atoms: _88  and  _89
REMARK   40  A    between atoms: _88  and  _91
REMARK   41  A    between atoms: _91  and  _92
REMARK   42  A    between atoms: _95  and  _97
REMARK   43  A    between atoms: _97  and  _98
REMARK   44  A    between atoms: _97  and  _100
REMARK   45  A    between atoms: _100  and  _101
REMARK   46  A    between atoms: _104  and  _106
REMARK   47  A    between atoms: _106  and  _107
REMARK   48  A    between atoms: _106  and  _109
REMARK   49  A    between atoms: _109  and  _110
REMARK   50  A    between atoms: _110  and  _111
REMARK   51  A    between atoms: _111  and  _112
REMARK   52  A    between atoms: _121  and  _123
REMARK   53  A    between atoms: _123  and  _124
REMARK   54  A    between atoms: _123  and  _126
REMARK   55  A    between atoms: _126  and  _127
REMARK   56  A    between atoms: _130  and  _132
REMARK   57  A    between atoms: _132  and  _133
REMARK   58  A    between atoms: _132  and  _135
REMARK   59  A    between atoms: _135  and  _136
REMARK   60  A    between atoms: _139  and  _141
REMARK   61  A    between atoms: _141  and  _142
REMARK   62  A    between atoms: _141  and  _144
REMARK   63  A    between atoms: _144  and  _145
REMARK   64  A    between atoms: _145  and  _146
REMARK   65  A    between atoms: _146  and  _147
REMARK   66  A    between atoms: _156  and  _158
REMARK   67  A    between atoms: _158  and  _159
REMARK   68  A    between atoms: _158  and  _161
REMARK   69  A    between atoms: _161  and  _162
REMARK   70  A    between atoms: _165  and  _167
REMARK   71  A    between atoms: _167  and  _168
REMARK   72  A    between atoms: _167  and  _170
REMARK   73  A    between atoms: _170  and  _171
REMARK   74  A    between atoms: _171  and  _172
REMARK   75  A    between atoms: _177  and  _179
REMARK   76  A    between atoms: _179  and  _180
REMARK   77  A    between atoms: _179  and  _182
REMARK   78  A    between atoms: _182  and  _183
REMARK   79  A    between atoms: _186  and  _188
REMARK   80  A    between atoms: _188  and  _189
REMARK   81  A    between atoms: _188  and  _191
REMARK   82  A    between atoms: _191  and  _192
REMARK   83  A    between atoms: _195  and  _197
REMARK   84  A    between atoms: _197  and  _198
REMARK   85  A    between atoms: _197  and  _200
REMARK   86  A    between atoms: _203  and  _205
REMARK   87  A    between atoms: _205  and  _206
REMARK   88  A    between atoms: _205  and  _208
REMARK   89  A    between atoms: _208  and  _209
REMARK   90  A    between atoms: _209  and  _210
REMARK   91  A    between atoms: _210  and  _211
REMARK   92  A    between atoms: _220  and  _222
REMARK   93  A    between atoms: _222  and  _223
REMARK   94  A    between atoms: _222  and  _225
REMARK   95  A    between atoms: _225  and  _226
REMARK   96  A    between atoms: _229  and  _231
REMARK   97  A    between atoms: _231  and  _232
REMARK   98  A    between atoms: _231  and  _234
REMARK   99  A    between atoms: _234  and  _235
REMARK  100  A    between atoms: _237  and  _239
REMARK  101  A    between atoms: _239  and  _240
REMARK  102  A    between atoms: _239  and  _242
REMARK  103  A    between atoms: _245  and  _247
REMARK  104  A    between atoms: _247  and  _248
REMARK  105  A    between atoms: _247  and  _250
REMARK  106  A    between atoms: _252  and  _254
REMARK  107  A    between atoms: _254  and  _255
REMARK  108  A    between atoms: _254  and  _257
REMARK  109  A    between atoms: _257  and  _258
REMARK  110  A    between atoms: _263  and  _265
REMARK  111  A    between atoms: _265  and  _266
REMARK  112  A    between atoms: _269  and  _271
REMARK  113  A    between atoms: _271  and  _272
REMARK  114  A    between atoms: _274  and  _276
REMARK  115  A    between atoms: _276  and  _277
REMARK  116  A    between atoms: _276  and  _279
REMARK  117  A    between atoms: _279  and  _280
REMARK  118  A    between atoms: _283  and  _285
REMARK  119  A    between atoms: _285  and  _286
REMARK  120  A    between atoms: _288  and  _290
REMARK  121  A    between atoms: _290  and  _291
REMARK  122  A    between atoms: _290  and  _293
REMARK  123  A    between atoms: _293  and  _294
REMARK  124  A    between atoms: _297  and  _299
REMARK  125  A    between atoms: _299  and  _300
REMARK  126  A    between atoms: _299  and  _302
REMARK  127  A    between atoms: _302  and  _303
REMARK  128  A    between atoms: _306  and  _308
REMARK  129  A    between atoms: _308  and  _309
REMARK  130  A    between atoms: _308  and  _311
REMARK  131  A    between atoms: _311  and  _312
REMARK  132  A    between atoms: _314  and  _316
REMARK  133  A    between atoms: _316  and  _317
REMARK  134  A    between atoms: _316  and  _319
REMARK  135  A    between atoms: _319  and  _320
REMARK  136  A    between atoms: _323  and  _325
REMARK  137  A    between atoms: _325  and  _326
REMARK  138  A    between atoms: _325  and  _328
REMARK  139  A    between atoms: _331  and  _333
REMARK  140  A    between atoms: _333  and  _334
REMARK  141  A    between atoms: _333  and  _336
REMARK  142  A    between atoms: _336  and  _337
REMARK  143  A    between atoms: _342  and  _344
REMARK  144  A    between atoms: _344  and  _345
REMARK  145  A    between atoms: _347  and  _349
REMARK  146  A    between atoms: _349  and  _350
REMARK  147  A    between atoms: _349  and  _352
REMARK  148  A    between atoms: _352  and  _353
REMARK  149  A    between atoms: _353  and  _354
REMARK  150  A    between atoms: _354  and  _355
REMARK  151  A    between atoms: _364  and  _366
REMARK  152  A    between atoms: _366  and  _367
REMARK  153  A    between atoms: _366  and  _369
REMARK  154  A    between atoms: _369  and  _370
REMARK  155  A    between atoms: _370  and  _371
REMARK  156  A    between atoms: _373  and  _375
REMARK  157  A    between atoms: _375  and  _376
REMARK  158  A    between atoms: _375  and  _378
REMARK  159  A    between atoms: _378  and  _379
REMARK  160  A    between atoms: _382  and  _384
REMARK  161  A    between atoms: _384  and  _385
REMARK  162  A    between atoms: _387  and  _389
REMARK  163  A    between atoms: _389  and  _390
REMARK  164  A    between atoms: _389  and  _392
REMARK  165  A    between atoms: _392  and  _393
REMARK  166  A    between atoms: _395  and  _397
REMARK  167  A    between atoms: _397  and  _398
REMARK  168  A    between atoms: _397  and  _400
REMARK  169  A    between atoms: _403  and  _405
REMARK  170  A    between atoms: _405  and  _406
REMARK  171  A    between atoms: _408  and  _410
REMARK  172  A    between atoms: _410  and  _411
REMARK  173  A    between atoms: _413  and  _415
REMARK  174  A    between atoms: _415  and  _416
REMARK  175  A    between atoms: _415  and  _418
REMARK  176  A    between atoms: _418  and  _419
REMARK  177  A    between atoms: _422  and  _424
REMARK  178  A    between atoms: _424  and  _425
REMARK  179  A    between atoms: _424  and  _427
REMARK  180  A    between atoms: _427  and  _428
REMARK  181  A    between atoms: _428  and  _429
REMARK  182  A    between atoms: _431  and  _433
REMARK  183  A    between atoms: _433  and  _434
REMARK  184  A    between atoms: _436  and  _438
REMARK  185  A    between atoms: _438  and  _439
REMARK  186  A    between atoms: _438  and  _441
REMARK  187  A    between atoms: _441  and  _442
REMARK  188  A    between atoms: _446  and  _447
REMARK  189  A    between atoms: _452  and  _454
REMARK  190  A    between atoms: _454  and  _455
REMARK  191  A    between atoms: _454  and  _457
REMARK  192  A    between atoms: _457  and  _458
REMARK  193  A    between atoms: _463  and  _465
REMARK  194  A    between atoms: _465  and  _466
REMARK  195  A    between atoms: _465  and  _468
REMARK  196  A    between atoms: _468  and  _469
REMARK  197  A    between atoms: _474  and  _475
REMARK  198  A    between atoms: _477  and  _479
REMARK  199  A    between atoms: _479  and  _480
REMARK  200  A    between atoms: _479  and  _482
REMARK  201  A    between atoms: _484  and  _486
REMARK  202  A    between atoms: _486  and  _487
REMARK  203  A    between atoms: _486  and  _489
REMARK  204  A    between atoms: _489  and  _490
REMARK  205  A    between atoms: _490  and  _491
REMARK  206  A    between atoms: _491  and  _492
REMARK  207  A    between atoms: _492  and  _493
REMARK  208  A    between atoms: _497  and  _499
REMARK  209  A    between atoms: _499  and  _500
REMARK  210  A    between atoms: _499  and  _502
REMARK  211  A    between atoms: _502  and  _503
REMARK  212  A    between atoms: _503  and  _504
REMARK  213  A    between atoms: _507  and  _509
REMARK  214  A    between atoms: _509  and  _510
REMARK  215  A    between atoms: _509  and  _512
REMARK  216  A    between atoms: _514  and  _516
REMARK  217  A    between atoms: _516  and  _517
REMARK  218  A    between atoms: _520  and  _521
REMARK  219  A    between atoms: _526  and  _528
REMARK  220  A    between atoms: _528  and  _529
REMARK  221  A    between atoms: _528  and  _531
REMARK  222  A    between atoms: _534  and  _536
REMARK  223  A    between atoms: _536  and  _537
REMARK  224  A    between atoms: _536  and  _539
REMARK  225  A    between atoms: _539  and  _540
REMARK  226  A    between atoms: _543  and  _545
REMARK  227  A    between atoms: _545  and  _546
REMARK  228  A    between atoms: _545  and  _548
REMARK  229  A    between atoms: _548  and  _549
REMARK  230  A    between atoms: _555  and  _557
REMARK  231  A    between atoms: _557  and  _558
REMARK  232  A    between atoms: _557  and  _560
REMARK  233  A    between atoms: _560  and  _561
REMARK  234  A    between atoms: _561  and  _562
REMARK  235  A    between atoms: _564  and  _566
REMARK  236  A    between atoms: _566  and  _567
REMARK  237  A    between atoms: _566  and  _569
REMARK  238  A    between atoms: _569  and  _570
REMARK  239  A    between atoms: _570  and  _571
REMARK  240  A    between atoms: _574  and  _576
REMARK  241  A    between atoms: _576  and  _577
REMARK  242  A    between atoms: _576  and  _579
REMARK  243  A    between atoms: _579  and  _580
REMARK  244  A    between atoms: _580  and  _581
REMARK  245  A    between atoms: _581  and  _582
REMARK  246  A    between atoms: _582  and  _583
REMARK  247  A    between atoms: _587  and  _589
REMARK  248  A    between atoms: _589  and  _590
REMARK  249  A    between atoms: _589  and  _592
REMARK  250  A    between atoms: _592  and  _593
REMARK  251  A    between atoms: _598  and  _599
REMARK  252  A    between atoms: _601  and  _603
REMARK  253  A    between atoms: _603  and  _604
REMARK  254  A    between atoms: _603  and  _606
REMARK  255  A    between atoms: _606  and  _607
REMARK  256  A    between atoms: _610  and  _612
REMARK  257  A    between atoms: _612  and  _613
REMARK  258  A    between atoms: _612  and  _615
REMARK  259  A    between atoms: _615  and  _616
REMARK  260  A    between atoms: _621  and  _623
REMARK  261  A    between atoms: _623  and  _624
REMARK  262  A    between atoms: _623  and  _626
REMARK  263  A    between atoms: _626  and  _627
REMARK  264  A    between atoms: _629  and  _631
REMARK  265  A    between atoms: _631  and  _632
REMARK  266  A    between atoms: _631  and  _634
REMARK  267  A    between atoms: _634  and  _635
REMARK  268  A    between atoms: _635  and  _636
REMARK  269  A    between atoms: _636  and  _637
REMARK  270  A    between atoms: _637  and  _638
REMARK  271  A    between atoms: _642  and  _644
REMARK  272  A    between atoms: _644  and  _645
REMARK  273  A    between atoms: _644  and  _647
REMARK  274  A    between atoms: _647  and  _648
REMARK  275  A    between atoms: _648  and  _649
REMARK  276  A    between atoms: _654  and  _656
REMARK  277  A    between atoms: _656  and  _657
REMARK  278  A    between atoms: _656  and  _659
REMARK  279  A    between atoms: _662  and  _664
REMARK  280  A    between atoms: _664  and  _665
REMARK  281  A    between atoms: _664  and  _667
REMARK  282  A    between atoms: _667  and  _668
REMARK  283  A    between atoms: _674  and  _676
REMARK  284  A    between atoms: _676  and  _677
REMARK  285  A    between atoms: _680  and  _682
REMARK  286  A    between atoms: _682  and  _683
REMARK  287  A    between atoms: _682  and  _685
REMARK  288  A    between atoms: _685  and  _686
REMARK  289  A    between atoms: _689  and  _691
REMARK  290  A    between atoms: _691  and  _692
REMARK  291  A    between atoms: _691  and  _694
REMARK  292  A    between atoms: _694  and  _695
REMARK  293  A    between atoms: _695  and  _696
REMARK  294  A    between atoms: _696  and  _697
REMARK  295  A    between atoms: _706  and  _708
REMARK  296  A    between atoms: _708  and  _709
REMARK  297  A    between atoms: _708  and  _711
REMARK  298  A    between atoms: _711  and  _712
REMARK  299  A    between atoms: _718  and  _720
REMARK  300  A    between atoms: _720  and  _721
REMARK  301  A    between atoms: _720  and  _723
REMARK  302  A    between atoms: _723  and  _724
REMARK  303  A    between atoms: _727  and  _729
REMARK  304  A    between atoms: _729  and  _730
REMARK  305  A    between atoms: _729  and  _732
REMARK  306  A    between atoms: _732  and  _733
REMARK  307  A    between atoms: _738  and  _739
REMARK  308  A    between atoms: _741  and  _743
REMARK  309  A    between atoms: _743  and  _744
REMARK  310  A    between atoms: _747  and  _749
REMARK  311  A    between atoms: _749  and  _750
REMARK  312  A    between atoms: _749  and  _752
REMARK  313  A    between atoms: _752  and  _753
REMARK  314  A    between atoms: _753  and  _754
REMARK  315  A    between atoms: _756  and  _758
REMARK  316  A    between atoms: _758  and  _759
REMARK  317  A    between atoms: _758  and  _761
REMARK  318  A    between atoms: _761  and  _762
REMARK  319  A    between atoms: _767  and  _769
REMARK  320  A    between atoms: _769  and  _770
REMARK  321  A    between atoms: _769  and  _772
REMARK  322  A    between atoms: _772  and  _773
REMARK  323  A    between atoms: _773  and  _774
REMARK  324  A    between atoms: _774  and  _775
REMARK  325  A    between atoms: _784  and  _786
REMARK  326  A    between atoms: _786  and  _787
REMARK  327  A    between atoms: _786  and  _789
REMARK  328  A    between atoms: _789  and  _790
REMARK  329  A    between atoms: _790  and  _791
REMARK  330  A    between atoms: _794  and  _796
REMARK  331  A    between atoms: _796  and  _797
REMARK  332  A    between atoms: _796  and  _799
REMARK  333  A    between atoms: _802  and  _804
REMARK  334  A    between atoms: _804  and  _805
REMARK  335  A    between atoms: _804  and  _807
REMARK  336  A    between atoms: _807  and  _808
REMARK                            x       y       z     vdW  Elec       q    Type
REMARK                         _______ _______ _______ _____ _____    ______ ____
ROOT
ATOM      1  O   HOH     1       9.674 -11.131  -4.458  0.00  0.00    +0.000 OA
ENDROOT
TORSDOF 0
REMARK  Name = ../refined-set-2016/1i5r/1i5r_pocket.pdb
REMARK  336 active torsions:
REMARK  status: ('A' for Active; 'I' for Inactive)
REMARK    1  A    between atoms: _1  and  _3
REMARK    2  A    between atoms: _3  and  _4
REMARK    3  A    between atoms: _3  and  _6
REMARK    4  A    between atoms: _6  and  _7
REMARK    5  A    between atoms: _10  and  _12
REMARK    6  A    between atoms: _12  and  _13
REMARK    7  A    between atoms: _12  and  _15
REMARK    8  A    between atoms: _15  and  _16
REMARK    9  A    between atoms: _19  and  _21
REMARK   10  A    between atoms: _21  and  _22
REMARK   11  A    between atoms: _24  and  _26
REMARK   12  A    between atoms: _26  and  _27
REMARK   13  A    between atoms: _26  and  _29
REMARK   14  A    between atoms: _31  and  _33
REMARK   15  A    between atoms: _33  and  _34
REMARK   16  A    between atoms: _33  and  _36
REMARK   17  A    between atoms: _36  and  _37
REMARK   18  A    between atoms: _39  and  _41
REMARK   19  A    between atoms: _41  and  _42
REMARK   20  A    between atoms: _41  and  _44
REMARK   21  A    between atoms: _44  and  _45
REMARK   22  A    between atoms: _47  and  _49
REMARK   23  A    between atoms: _49  and  _50
REMARK   24  A    between atoms: _52  and  _54
REMARK   25  A    between atoms: _54  and  _55
REMARK   26  A    between atoms: _54  and  _57
REMARK   27  A    between atoms: _57  and  _58
REMARK   28  A    between atoms: _61  and  _63
REMARK   29  A    between atoms: _63  and  _64
REMARK   30  A    between atoms: _66  and  _68
REMARK   31  A    between atoms: _68  and  _69
REMARK   32  A    between atoms: _68  and  _71
REMARK   33  A    between atoms: _71  and  _72
REMARK   34  A    between atoms: _75  and  _77
REMARK   35  A    between atoms: _77  and  _78
REMARK   36  A    between atoms: _77  and  _80
REMARK   37  A    between atoms: _80  and  _81
REMARK   38  A    between atoms: _86  and  _88
REMARK   39  A    between atoms: _88  and  _89
REMARK   40  A    between atoms: _88  and  _91
REMARK   41  A    between atoms: _91  and  _92
REMARK   42  A    between atoms: _95  and  _97
REMARK   43  A    between atoms: _97  and  _98
REMARK   44  A    between atoms: _97  and  _100
REMARK   45  A    between atoms: _100  and  _101
REMARK   46  A    between atoms: _104  and  _106
REMARK   47  A    between atoms: _106  and  _107
REMARK   48  A    between atoms: _106  and  _109
REMARK   49  A    between atoms: _109  and  _110
REMARK   50  A    between atoms: _110  and  _111
REMARK   51  A    between atoms: _111  and  _112
REMARK   52  A    between atoms: _121  and  _123
REMARK   53  A    between atoms: _123  and  _124
REMARK   54  A    between atoms: _123  and  _126
REMARK   55  A    between atoms: _126  and  _127
REMARK   56  A    between atoms: _130  and  _132
REMARK   57  A    between atoms: _132  and  _133
REMARK   58  A    between atoms: _132  and  _135
REMARK   59  A    between atoms: _135  and  _136
REMARK   60  A    between atoms: _139  and  _141
REMARK   61  A    between atoms: _141  and  _142
REMARK   62  A    between atoms: _141  and  _144
REMARK   63  A    between atoms: _144  and  _145
REMARK   64  A    between atoms: _145  and  _146
REMARK   65  A    between atoms: _146  and  _147
REMARK   66  A    between atoms: _156  and  _158
REMARK   67  A    between atoms: _158  and  _159
REMARK   68  A    between atoms: _158  and  _161
REMARK   69  A    between atoms: _161  and  _162
REMARK   70  A    between atoms: _165  and  _167
REMARK   71  A    between atoms: _167  and  _168
REMARK   72  A    between atoms: _167  and  _170
REMARK   73  A    between atoms: _170  and  _171
REMARK   74  A    between atoms: _171  and  _172
REMARK   75  A    between atoms: _177  and  _179
REMARK   76  A    between atoms: _179  and  _180
REMARK   77  A    between atoms: _179  and  _182
REMARK   78  A    between atoms: _182  and  _183
REMARK   79  A    between atoms: _186  and  _188
REMARK   80  A    between atoms: _188  and  _189
REMARK   81  A    between atoms: _188  and  _191
REMARK   82  A    between atoms: _191  and  _192
REMARK   83  A    between atoms: _195  and  _197
REMARK   84  A    between atoms: _197  and  _198
REMARK   85  A    between atoms: _197  and  _200
REMARK   86  A    between atoms: _203  and  _205
REMARK   87  A    between atoms: _205  and  _206
REMARK   88  A    between atoms: _205  and  _208
REMARK   89  A    between atoms: _208  and  _209
REMARK   90  A    between atoms: _209  and  _210
REMARK   91  A    between atoms: _210  and  _211
REMARK   92  A    between atoms: _220  and  _222
REMARK   93  A    between atoms: _222  and  _223
REMARK   94  A    between atoms: _222  and  _225
REMARK   95  A    between atoms: _225  and  _226
REMARK   96  A    between atoms: _229  and  _231
REMARK   97  A    between atoms: _231  and  _232
REMARK   98  A    between atoms: _231  and  _234
REMARK   99  A    between atoms: _234  and  _235
REMARK  100  A    between atoms: _237  and  _239
REMARK  101  A    between atoms: _239  and  _240
REMARK  102  A    between atoms: _239  and  _242
REMARK  103  A    between atoms: _245  and  _247
REMARK  104  A    between atoms: _247  and  _248
REMARK  105  A    between atoms: _247  and  _250
REMARK  106  A    between atoms: _252  and  _254
REMARK  107  A    between atoms: _254  and  _255
REMARK  108  A    between atoms: _254  and  _257
REMARK  109  A    between atoms: _257  and  _258
REMARK  110  A    between atoms: _263  and  _265
REMARK  111  A    between atoms: _265  and  _266
REMARK  112  A    between atoms: _269  and  _271
REMARK  113  A    between atoms: _271  and  _272
REMARK  114  A    between atoms: _274  and  _276
REMARK  115  A    between atoms: _276  and  _277
REMARK  116  A    between atoms: _276  and  _279
REMARK  117  A    between atoms: _279  and  _280
REMARK  118  A    between atoms: _283  and  _285
REMARK  119  A    between atoms: _285  and  _286
REMARK  120  A    between atoms: _288  and  _290
REMARK  121  A    between atoms: _290  and  _291
REMARK  122  A    between atoms: _290  and  _293
REMARK  123  A    between atoms: _293  and  _294
REMARK  124  A    between atoms: _297  and  _299
REMARK  125  A    between atoms: _299  and  _300
REMARK  126  A    between atoms: _299  and  _302
REMARK  127  A    between atoms: _302  and  _303
REMARK  128  A    between atoms: _306  and  _308
REMARK  129  A    between atoms: _308  and  _309
REMARK  130  A    between atoms: _308  and  _311
REMARK  131  A    between atoms: _311  and  _312
REMARK  132  A    between atoms: _314  and  _316
REMARK  133  A    between atoms: _316  and  _317
REMARK  134  A    between atoms: _316  and  _319
REMARK  135  A    between atoms: _319  and  _320
REMARK  136  A    between atoms: _323  and  _325
REMARK  137  A    between atoms: _325  and  _326
REMARK  138  A    between atoms: _325  and  _328
REMARK  139  A    between atoms: _331  and  _333
REMARK  140  A    between atoms: _333  and  _334
REMARK  141  A    between atoms: _333  and  _336
REMARK  142  A    between atoms: _336  and  _337
REMARK  143  A    between atoms: _342  and  _344
REMARK  144  A    between atoms: _344  and  _345
REMARK  145  A    between atoms: _347  and  _349
REMARK  146  A    between atoms: _349  and  _350
REMARK  147  A    between atoms: _349  and  _352
REMARK  148  A    between atoms: _352  and  _353
REMARK  149  A    between atoms: _353  and  _354
REMARK  150  A    between atoms: _354  and  _355
REMARK  151  A    between atoms: _364  and  _366
REMARK  152  A    between atoms: _366  and  _367
REMARK  153  A    between atoms: _366  and  _369
REMARK  154  A    between atoms: _369  and  _370
REMARK  155  A    between atoms: _370  and  _371
REMARK  156  A    between atoms: _373  and  _375
REMARK  157  A    between atoms: _375  and  _376
REMARK  158  A    between atoms: _375  and  _378
REMARK  159  A    between atoms: _378  and  _379
REMARK  160  A    between atoms: _382  and  _384
REMARK  161  A    between atoms: _384  and  _385
REMARK  162  A    between atoms: _387  and  _389
REMARK  163  A    between atoms: _389  and  _390
REMARK  164  A    between atoms: _389  and  _392
REMARK  165  A    between atoms: _392  and  _393
REMARK  166  A    between atoms: _395  and  _397
REMARK  167  A    between atoms: _397  and  _398
REMARK  168  A    between atoms: _397  and  _400
REMARK  169  A    between atoms: _403  and  _405
REMARK  170  A    between atoms: _405  and  _406
REMARK  171  A    between atoms: _408  and  _410
REMARK  172  A    between atoms: _410  and  _411
REMARK  173  A    between atoms: _413  and  _415
REMARK  174  A    between atoms: _415  and  _416
REMARK  175  A    between atoms: _415  and  _418
REMARK  176  A    between atoms: _418  and  _419
REMARK  177  A    between atoms: _422  and  _424
REMARK  178  A    between atoms: _424  and  _425
REMARK  179  A    between atoms: _424  and  _427
REMARK  180  A    between atoms: _427  and  _428
REMARK  181  A    between atoms: _428  and  _429
REMARK  182  A    between atoms: _431  and  _433
REMARK  183  A    between atoms: _433  and  _434
REMARK  184  A    between atoms: _436  and  _438
REMARK  185  A    between atoms: _438  and  _439
REMARK  186  A    between atoms: _438  and  _441
REMARK  187  A    between atoms: _441  and  _442
REMARK  188  A    between atoms: _446  and  _447
REMARK  189  A    between atoms: _452  and  _454
REMARK  190  A    between atoms: _454  and  _455
REMARK  191  A    between atoms: _454  and  _457
REMARK  192  A    between atoms: _457  and  _458
REMARK  193  A    between atoms: _463  and  _465
REMARK  194  A    between atoms: _465  and  _466
REMARK  195  A    between atoms: _465  and  _468
REMARK  196  A    between atoms: _468  and  _469
REMARK  197  A    between atoms: _474  and  _475
REMARK  198  A    between atoms: _477  and  _479
REMARK  199  A    between atoms: _479  and  _480
REMARK  200  A    between atoms: _479  and  _482
REMARK  201  A    between atoms: _484  and  _486
REMARK  202  A    between atoms: _486  and  _487
REMARK  203  A    between atoms: _486  and  _489
REMARK  204  A    between atoms: _489  and  _490
REMARK  205  A    between atoms: _490  and  _491
REMARK  206  A    between atoms: _491  and  _492
REMARK  207  A    between atoms: _492  and  _493
REMARK  208  A    between atoms: _497  and  _499
REMARK  209  A    between atoms: _499  and  _500
REMARK  210  A    between atoms: _499  and  _502
REMARK  211  A    between atoms: _502  and  _503
REMARK  212  A    between atoms: _503  and  _504
REMARK  213  A    between atoms: _507  and  _509
REMARK  214  A    between atoms: _509  and  _510
REMARK  215  A    between atoms: _509  and  _512
REMARK  216  A    between atoms: _514  and  _516
REMARK  217  A    between atoms: _516  and  _517
REMARK  218  A    between atoms: _520  and  _521
REMARK  219  A    between atoms: _526  and  _528
REMARK  220  A    between atoms: _528  and  _529
REMARK  221  A    between atoms: _528  and  _531
REMARK  222  A    between atoms: _534  and  _536
REMARK  223  A    between atoms: _536  and  _537
REMARK  224  A    between atoms: _536  and  _539
REMARK  225  A    between atoms: _539  and  _540
REMARK  226  A    between atoms: _543  and  _545
REMARK  227  A    between atoms: _545  and  _546
REMARK  228  A    between atoms: _545  and  _548
REMARK  229  A    between atoms: _548  and  _549
REMARK  230  A    between atoms: _555  and  _557
REMARK  231  A    between atoms: _557  and  _558
REMARK  232  A    between atoms: _557  and  _560
REMARK  233  A    between atoms: _560  and  _561
REMARK  234  A    between atoms: _561  and  _562
REMARK  235  A    between atoms: _564  and  _566
REMARK  236  A    between atoms: _566  and  _567
REMARK  237  A    between atoms: _566  and  _569
REMARK  238  A    between atoms: _569  and  _570
REMARK  239  A    between atoms: _570  and  _571
REMARK  240  A    between atoms: _574  and  _576
REMARK  241  A    between atoms: _576  and  _577
REMARK  242  A    between atoms: _576  and  _579
REMARK  243  A    between atoms: _579  and  _580
REMARK  244  A    between atoms: _580  and  _581
REMARK  245  A    between atoms: _581  and  _582
REMARK  246  A    between atoms: _582  and  _583
REMARK  247  A    between atoms: _587  and  _589
REMARK  248  A    between atoms: _589  and  _590
REMARK  249  A    between atoms: _589  and  _592
REMARK  250  A    between atoms: _592  and  _593
REMARK  251  A    between atoms: _598  and  _599
REMARK  252  A    between atoms: _601  and  _603
REMARK  253  A    between atoms: _603  and  _604
REMARK  254  A    between atoms: _603  and  _606
REMARK  255  A    between atoms: _606  and  _607
REMARK  256  A    between atoms: _610  and  _612
REMARK  257  A    between atoms: _612  and  _613
REMARK  258  A    between atoms: _612  and  _615
REMARK  259  A    between atoms: _615  and  _616
REMARK  260  A    between atoms: _621  and  _623
REMARK  261  A    between atoms: _623  and  _624
REMARK  262  A    between atoms: _623  and  _626
REMARK  263  A    between atoms: _626  and  _627
REMARK  264  A    between atoms: _629  and  _631
REMARK  265  A    between atoms: _631  and  _632
REMARK  266  A    between atoms: _631  and  _634
REMARK  267  A    between atoms: _634  and  _635
REMARK  268  A    between atoms: _635  and  _636
REMARK  269  A    between atoms: _636  and  _637
REMARK  270  A    between atoms: _637  and  _638
REMARK  271  A    between atoms: _642  and  _644
REMARK  272  A    between atoms: _644  and  _645
REMARK  273  A    between atoms: _644  and  _647
REMARK  274  A    between atoms: _647  and  _648
REMARK  275  A    between atoms: _648  and  _649
REMARK  276  A    between atoms: _654  and  _656
REMARK  277  A    between atoms: _656  and  _657
REMARK  278  A    between atoms: _656  and  _659
REMARK  279  A    between atoms: _662  and  _664
REMARK  280  A    between atoms: _664  and  _665
REMARK  281  A    between atoms: _664  and  _667
REMARK  282  A    between atoms: _667  and  _668
REMARK  283  A    between atoms: _674  and  _676
REMARK  284  A    between atoms: _676  and  _677
REMARK  285  A    between atoms: _680  and  _682
REMARK  286  A    between atoms: _682  and  _683
REMARK  287  A    between atoms: _682  and  _685
REMARK  288  A    between atoms: _685  and  _686
REMARK  289  A    between atoms: _689  and  _691
REMARK  290  A    between atoms: _691  and  _692
REMARK  291  A    between atoms: _691  and  _694
REMARK  292  A    between atoms: _694  and  _695
REMARK  293  A    between atoms: _695  and  _696
REMARK  294  A    between atoms: _696  and  _697
REMARK  295  A    between atoms: _706  and  _708
REMARK  296  A    between atoms: _708  and  _709
REMARK  297  A    between atoms: _708  and  _711
REMARK  298  A    between atoms: _711  and  _712
REMARK  299  A    between atoms: _718  and  _720
REMARK  300  A    between atoms: _720  and  _721
REMARK  301  A    between atoms: _720  and  _723
REMARK  302  A    between atoms: _723  and  _724
REMARK  303  A    between atoms: _727  and  _729
REMARK  304  A    between atoms: _729  and  _730
REMARK  305  A    between atoms: _729  and  _732
REMARK  306  A    between atoms: _732  and  _733
REMARK  307  A    between atoms: _738  and  _739
REMARK  308  A    between atoms: _741  and  _743
REMARK  309  A    between atoms: _743  and  _744
REMARK  310  A    between atoms: _747  and  _749
REMARK  311  A    between atoms: _749  and  _750
REMARK  312  A    between atoms: _749  and  _752
REMARK  313  A    between atoms: _752  and  _753
REMARK  314  A    between atoms: _753  and  _754
REMARK  315  A    between atoms: _756  and  _758
REMARK  316  A    between atoms: _758  and  _759
REMARK  317  A    between atoms: _758  and  _761
REMARK  318  A    between atoms: _761  and  _762
REMARK  319  A    between atoms: _767  and  _769
REMARK  320  A    between atoms: _769  and  _770
REMARK  321  A    between atoms: _769  and  _772
REMARK  322  A    between atoms: _772  and  _773
REMARK  323  A    between atoms: _773  and  _774
REMARK  324  A    between atoms: _774  and  _775
REMARK  325  A    between atoms: _784  and  _786
REMARK  326  A    between atoms: _786  and  _787
REMARK  327  A    between atoms: _786  and  _789
REMARK  328  A    between atoms: _789  and  _790
REMARK  329  A    between atoms: _790  and  _791
REMARK  330  A    between atoms: _794  and  _796
REMARK  331  A    between atoms: _796  and  _797
REMARK  332  A    between atoms: _796  and  _799
REMARK  333  A    between atoms: _802  and  _804
REMARK  334  A    between atoms: _804  and  _805
REMARK  335  A    between atoms: _804  and  _807
REMARK  336  A    between atoms: _807  and  _808
REMARK                            x       y       z     vdW  Elec       q    Type
REMARK                         _______ _______ _______ _____ _____    ______ ____
ROOT
ATOM      1  O   HOH     1      11.204  -0.772  -3.943  0.00  0.00    +0.000 OA
ENDROOT
TORSDOF 0
REMARK  Name = ../refined-set-2016/1i5r/1i5r_pocket.pdb
REMARK  336 active torsions:
REMARK  status: ('A' for Active; 'I' for Inactive)
REMARK    1  A    between atoms: _1  and  _3
REMARK    2  A    between atoms: _3  and  _4
REMARK    3  A    between atoms: _3  and  _6
REMARK    4  A    between atoms: _6  and  _7
REMARK    5  A    between atoms: _10  and  _12
REMARK    6  A    between atoms: _12  and  _13
REMARK    7  A    between atoms: _12  and  _15
REMARK    8  A    between atoms: _15  and  _16
REMARK    9  A    between atoms: _19  and  _21
REMARK   10  A    between atoms: _21  and  _22
REMARK   11  A    between atoms: _24  and  _26
REMARK   12  A    between atoms: _26  and  _27
REMARK   13  A    between atoms: _26  and  _29
REMARK   14  A    between atoms: _31  and  _33
REMARK   15  A    between atoms: _33  and  _34
REMARK   16  A    between atoms: _33  and  _36
REMARK   17  A    between atoms: _36  and  _37
REMARK   18  A    between atoms: _39  and  _41
REMARK   19  A    between atoms: _41  and  _42
REMARK   20  A    between atoms: _41  and  _44
REMARK   21  A    between atoms: _44  and  _45
REMARK   22  A    between atoms: _47  and  _49
REMARK   23  A    between atoms: _49  and  _50
REMARK   24  A    between atoms: _52  and  _54
REMARK   25  A    between atoms: _54  and  _55
REMARK   26  A    between atoms: _54  and  _57
REMARK   27  A    between atoms: _57  and  _58
REMARK   28  A    between atoms: _61  and  _63
REMARK   29  A    between atoms: _63  and  _64
REMARK   30  A    between atoms: _66  and  _68
REMARK   31  A    between atoms: _68  and  _69
REMARK   32  A    between atoms: _68  and  _71
REMARK   33  A    between atoms: _71  and  _72
REMARK   34  A    between atoms: _75  and  _77
REMARK   35  A    between atoms: _77  and  _78
REMARK   36  A    between atoms: _77  and  _80
REMARK   37  A    between atoms: _80  and  _81
REMARK   38  A    between atoms: _86  and  _88
REMARK   39  A    between atoms: _88  and  _89
REMARK   40  A    between atoms: _88  and  _91
REMARK   41  A    between atoms: _91  and  _92
REMARK   42  A    between atoms: _95  and  _97
REMARK   43  A    between atoms: _97  and  _98
REMARK   44  A    between atoms: _97  and  _100
REMARK   45  A    between atoms: _100  and  _101
REMARK   46  A    between atoms: _104  and  _106
REMARK   47  A    between atoms: _106  and  _107
REMARK   48  A    between atoms: _106  and  _109
REMARK   49  A    between atoms: _109  and  _110
REMARK   50  A    between atoms: _110  and  _111
REMARK   51  A    between atoms: _111  and  _112
REMARK   52  A    between atoms: _121  and  _123
REMARK   53  A    between atoms: _123  and  _124
REMARK   54  A    between atoms: _123  and  _126
REMARK   55  A    between atoms: _126  and  _127
REMARK   56  A    between atoms: _130  and  _132
REMARK   57  A    between atoms: _132  and  _133
REMARK   58  A    between atoms: _132  and  _135
REMARK   59  A    between atoms: _135  and  _136
REMARK   60  A    between atoms: _139  and  _141
REMARK   61  A    between atoms: _141  and  _142
REMARK   62  A    between atoms: _141  and  _144
REMARK   63  A    between atoms: _144  and  _145
REMARK   64  A    between atoms: _145  and  _146
REMARK   65  A    between atoms: _146  and  _147
REMARK   66  A    between atoms: _156  and  _158
REMARK   67  A    between atoms: _158  and  _159
REMARK   68  A    between atoms: _158  and  _161
REMARK   69  A    between atoms: _161  and  _162
REMARK   70  A    between atoms: _165  and  _167
REMARK   71  A    between atoms: _167  and  _168
REMARK   72  A    between atoms: _167  and  _170
REMARK   73  A    between atoms: _170  and  _171
REMARK   74  A    between atoms: _171  and  _172
REMARK   75  A    between atoms: _177  and  _179
REMARK   76  A    between atoms: _179  and  _180
REMARK   77  A    between atoms: _179  and  _182
REMARK   78  A    between atoms: _182  and  _183
REMARK   79  A    between atoms: _186  and  _188
REMARK   80  A    between atoms: _188  and  _189
REMARK   81  A    between atoms: _188  and  _191
REMARK   82  A    between atoms: _191  and  _192
REMARK   83  A    between atoms: _195  and  _197
REMARK   84  A    between atoms: _197  and  _198
REMARK   85  A    between atoms: _197  and  _200
REMARK   86  A    between atoms: _203  and  _205
REMARK   87  A    between atoms: _205  and  _206
REMARK   88  A    between atoms: _205  and  _208
REMARK   89  A    between atoms: _208  and  _209
REMARK   90  A    between atoms: _209  and  _210
REMARK   91  A    between atoms: _210  and  _211
REMARK   92  A    between atoms: _220  and  _222
REMARK   93  A    between atoms: _222  and  _223
REMARK   94  A    between atoms: _222  and  _225
REMARK   95  A    between atoms: _225  and  _226
REMARK   96  A    between atoms: _229  and  _231
REMARK   97  A    between atoms: _231  and  _232
REMARK   98  A    between atoms: _231  and  _234
REMARK   99  A    between atoms: _234  and  _235
REMARK  100  A    between atoms: _237  and  _239
REMARK  101  A    between atoms: _239  and  _240
REMARK  102  A    between atoms: _239  and  _242
REMARK  103  A    between atoms: _245  and  _247
REMARK  104  A    between atoms: _247  and  _248
REMARK  105  A    between atoms: _247  and  _250
REMARK  106  A    between atoms: _252  and  _254
REMARK  107  A    between atoms: _254  and  _255
REMARK  108  A    between atoms: _254  and  _257
REMARK  109  A    between atoms: _257  and  _258
REMARK  110  A    between atoms: _263  and  _265
REMARK  111  A    between atoms: _265  and  _266
REMARK  112  A    between atoms: _269  and  _271
REMARK  113  A    between atoms: _271  and  _272
REMARK  114  A    between atoms: _274  and  _276
REMARK  115  A    between atoms: _276  and  _277
REMARK  116  A    between atoms: _276  and  _279
REMARK  117  A    between atoms: _279  and  _280
REMARK  118  A    between atoms: _283  and  _285
REMARK  119  A    between atoms: _285  and  _286
REMARK  120  A    between atoms: _288  and  _290
REMARK  121  A    between atoms: _290  and  _291
REMARK  122  A    between atoms: _290  and  _293
REMARK  123  A    between atoms: _293  and  _294
REMARK  124  A    between atoms: _297  and  _299
REMARK  125  A    between atoms: _299  and  _300
REMARK  126  A    between atoms: _299  and  _302
REMARK  127  A    between atoms: _302  and  _303
REMARK  128  A    between atoms: _306  and  _308
REMARK  129  A    between atoms: _308  and  _309
REMARK  130  A    between atoms: _308  and  _311
REMARK  131  A    between atoms: _311  and  _312
REMARK  132  A    between atoms: _314  and  _316
REMARK  133  A    between atoms: _316  and  _317
REMARK  134  A    between atoms: _316  and  _319
REMARK  135  A    between atoms: _319  and  _320
REMARK  136  A    between atoms: _323  and  _325
REMARK  137  A    between atoms: _325  and  _326
REMARK  138  A    between atoms: _325  and  _328
REMARK  139  A    between atoms: _331  and  _333
REMARK  140  A    between atoms: _333  and  _334
REMARK  141  A    between atoms: _333  and  _336
REMARK  142  A    between atoms: _336  and  _337
REMARK  143  A    between atoms: _342  and  _344
REMARK  144  A    between atoms: _344  and  _345
REMARK  145  A    between atoms: _347  and  _349
REMARK  146  A    between atoms: _349  and  _350
REMARK  147  A    between atoms: _349  and  _352
REMARK  148  A    between atoms: _352  and  _353
REMARK  149  A    between atoms: _353  and  _354
REMARK  150  A    between atoms: _354  and  _355
REMARK  151  A    between atoms: _364  and  _366
REMARK  152  A    between atoms: _366  and  _367
REMARK  153  A    between atoms: _366  and  _369
REMARK  154  A    between atoms: _369  and  _370
REMARK  155  A    between atoms: _370  and  _371
REMARK  156  A    between atoms: _373  and  _375
REMARK  157  A    between atoms: _375  and  _376
REMARK  158  A    between atoms: _375  and  _378
REMARK  159  A    between atoms: _378  and  _379
REMARK  160  A    between atoms: _382  and  _384
REMARK  161  A    between atoms: _384  and  _385
REMARK  162  A    between atoms: _387  and  _389
REMARK  163  A    between atoms: _389  and  _390
REMARK  164  A    between atoms: _389  and  _392
REMARK  165  A    between atoms: _392  and  _393
REMARK  166  A    between atoms: _395  and  _397
REMARK  167  A    between atoms: _397  and  _398
REMARK  168  A    between atoms: _397  and  _400
REMARK  169  A    between atoms: _403  and  _405
REMARK  170  A    between atoms: _405  and  _406
REMARK  171  A    between atoms: _408  and  _410
REMARK  172  A    between atoms: _410  and  _411
REMARK  173  A    between atoms: _413  and  _415
REMARK  174  A    between atoms: _415  and  _416
REMARK  175  A    between atoms: _415  and  _418
REMARK  176  A    between atoms: _418  and  _419
REMARK  177  A    between atoms: _422  and  _424
REMARK  178  A    between atoms: _424  and  _425
REMARK  179  A    between atoms: _424  and  _427
REMARK  180  A    between atoms: _427  and  _428
REMARK  181  A    between atoms: _428  and  _429
REMARK  182  A    between atoms: _431  and  _433
REMARK  183  A    between atoms: _433  and  _434
REMARK  184  A    between atoms: _436  and  _438
REMARK  185  A    between atoms: _438  and  _439
REMARK  186  A    between atoms: _438  and  _441
REMARK  187  A    between atoms: _441  and  _442
REMARK  188  A    between atoms: _446  and  _447
REMARK  189  A    between atoms: _452  and  _454
REMARK  190  A    between atoms: _454  and  _455
REMARK  191  A    between atoms: _454  and  _457
REMARK  192  A    between atoms: _457  and  _458
REMARK  193  A    between atoms: _463  and  _465
REMARK  194  A    between atoms: _465  and  _466
REMARK  195  A    between atoms: _465  and  _468
REMARK  196  A    between atoms: _468  and  _469
REMARK  197  A    between atoms: _474  and  _475
REMARK  198  A    between atoms: _477  and  _479
REMARK  199  A    between atoms: _479  and  _480
REMARK  200  A    between atoms: _479  and  _482
REMARK  201  A    between atoms: _484  and  _486
REMARK  202  A    between atoms: _486  and  _487
REMARK  203  A    between atoms: _486  and  _489
REMARK  204  A    between atoms: _489  and  _490
REMARK  205  A    between atoms: _490  and  _491
REMARK  206  A    between atoms: _491  and  _492
REMARK  207  A    between atoms: _492  and  _493
REMARK  208  A    between atoms: _497  and  _499
REMARK  209  A    between atoms: _499  and  _500
REMARK  210  A    between atoms: _499  and  _502
REMARK  211  A    between atoms: _502  and  _503
REMARK  212  A    between atoms: _503  and  _504
REMARK  213  A    between atoms: _507  and  _509
REMARK  214  A    between atoms: _509  and  _510
REMARK  215  A    between atoms: _509  and  _512
REMARK  216  A    between atoms: _514  and  _516
REMARK  217  A    between atoms: _516  and  _517
REMARK  218  A    between atoms: _520  and  _521
REMARK  219  A    between atoms: _526  and  _528
REMARK  220  A    between atoms: _528  and  _529
REMARK  221  A    between atoms: _528  and  _531
REMARK  222  A    between atoms: _534  and  _536
REMARK  223  A    between atoms: _536  and  _537
REMARK  224  A    between atoms: _536  and  _539
REMARK  225  A    between atoms: _539  and  _540
REMARK  226  A    between atoms: _543  and  _545
REMARK  227  A    between atoms: _545  and  _546
REMARK  228  A    between atoms: _545  and  _548
REMARK  229  A    between atoms: _548  and  _549
REMARK  230  A    between atoms: _555  and  _557
REMARK  231  A    between atoms: _557  and  _558
REMARK  232  A    between atoms: _557  and  _560
REMARK  233  A    between atoms: _560  and  _561
REMARK  234  A    between atoms: _561  and  _562
REMARK  235  A    between atoms: _564  and  _566
REMARK  236  A    between atoms: _566  and  _567
REMARK  237  A    between atoms: _566  and  _569
REMARK  238  A    between atoms: _569  and  _570
REMARK  239  A    between atoms: _570  and  _571
REMARK  240  A    between atoms: _574  and  _576
REMARK  241  A    between atoms: _576  and  _577
REMARK  242  A    between atoms: _576  and  _579
REMARK  243  A    between atoms: _579  and  _580
REMARK  244  A    between atoms: _580  and  _581
REMARK  245  A    between atoms: _581  and  _582
REMARK  246  A    between atoms: _582  and  _583
REMARK  247  A    between atoms: _587  and  _589
REMARK  248  A    between atoms: _589  and  _590
REMARK  249  A    between atoms: _589  and  _592
REMARK  250  A    between atoms: _592  and  _593
REMARK  251  A    between atoms: _598  and  _599
REMARK  252  A    between atoms: _601  and  _603
REMARK  253  A    between atoms: _603  and  _604
REMARK  254  A    between atoms: _603  and  _606
REMARK  255  A    between atoms: _606  and  _607
REMARK  256  A    between atoms: _610  and  _612
REMARK  257  A    between atoms: _612  and  _613
REMARK  258  A    between atoms: _612  and  _615
REMARK  259  A    between atoms: _615  and  _616
REMARK  260  A    between atoms: _621  and  _623
REMARK  261  A    between atoms: _623  and  _624
REMARK  262  A    between atoms: _623  and  _626
REMARK  263  A    between atoms: _626  and  _627
REMARK  264  A    between atoms: _629  and  _631
REMARK  265  A    between atoms: _631  and  _632
REMARK  266  A    between atoms: _631  and  _634
REMARK  267  A    between atoms: _634  and  _635
REMARK  268  A    between atoms: _635  and  _636
REMARK  269  A    between atoms: _636  and  _637
REMARK  270  A    between atoms: _637  and  _638
REMARK  271  A    between atoms: _642  and  _644
REMARK  272  A    between atoms: _644  and  _645
REMARK  273  A    between atoms: _644  and  _647
REMARK  274  A    between atoms: _647  and  _648
REMARK  275  A    between atoms: _648  and  _649
REMARK  276  A    between atoms: _654  and  _656
REMARK  277  A    between atoms: _656  and  _657
REMARK  278  A    between atoms: _656  and  _659
REMARK  279  A    between atoms: _662  and  _664
REMARK  280  A    between atoms: _664  and  _665
REMARK  281  A    between atoms: _664  and  _667
REMARK  282  A    between atoms: _667  and  _668
REMARK  283  A    between atoms: _674  and  _676
REMARK  284  A    between atoms: _676  and  _677
REMARK  285  A    between atoms: _680  and  _682
REMARK  286  A    between atoms: _682  and  _683
REMARK  287  A    between atoms: _682  and  _685
REMARK  288  A    between atoms: _685  and  _686
REMARK  289  A    between atoms: _689  and  _691
REMARK  290  A    between atoms: _691  and  _692
REMARK  291  A    between atoms: _691  and  _694
REMARK  292  A    between atoms: _694  and  _695
REMARK  293  A    between atoms: _695  and  _696
REMARK  294  A    between atoms: _696  and  _697
REMARK  295  A    between atoms: _706  and  _708
REMARK  296  A    between atoms: _708  and  _709
REMARK  297  A    between atoms: _708  and  _711
REMARK  298  A    between atoms: _711  and  _712
REMARK  299  A    between atoms: _718  and  _720
REMARK  300  A    between atoms: _720  and  _721
REMARK  301  A    between atoms: _720  and  _723
REMARK  302  A    between atoms: _723  and  _724
REMARK  303  A    between atoms: _727  and  _729
REMARK  304  A    between atoms: _729  and  _730
REMARK  305  A    between atoms: _729  and  _732
REMARK  306  A    between atoms: _732  and  _733
REMARK  307  A    between atoms: _738  and  _739
REMARK  308  A    between atoms: _741  and  _743
REMARK  309  A    between atoms: _743  and  _744
REMARK  310  A    between atoms: _747  and  _749
REMARK  311  A    between atoms: _749  and  _750
REMARK  312  A    between atoms: _749  and  _752
REMARK  313  A    between atoms: _752  and  _753
REMARK  314  A    between atoms: _753  and  _754
REMARK  315  A    between atoms: _756  and  _758
REMARK  316  A    between atoms: _758  and  _759
REMARK  317  A    between atoms: _758  and  _761
REMARK  318  A    between atoms: _761  and  _762
REMARK  319  A    between atoms: _767  and  _769
REMARK  320  A    between atoms: _769  and  _770
REMARK  321  A    between atoms: _769  and  _772
REMARK  322  A    between atoms: _772  and  _773
REMARK  323  A    between atoms: _773  and  _774
REMARK  324  A    between atoms: _774  and  _775
REMARK  325  A    between atoms: _784  and  _786
REMARK  326  A    between atoms: _786  and  _787
REMARK  327  A    between atoms: _786  and  _789
REMARK  328  A    between atoms: _789  and  _790
REMARK  329  A    between atoms: _790  and  _791
REMARK  330  A    between atoms: _794  and  _796
REMARK  331  A    between atoms: _796  and  _797
REMARK  332  A    between atoms: _796  and  _799
REMARK  333  A    between atoms: _802  and  _804
REMARK  334  A    between atoms: _804  and  _805
REMARK  335  A    between atoms: _804  and  _807
REMARK  336  A    between atoms: _807  and  _808
REMARK                            x       y       z     vdW  Elec       q    Type
REMARK                         _______ _______ _______ _____ _____    ______ ____
ROOT
ATOM      1  O   HOH     1      20.182  -8.830  -5.812  0.00  0.00    +0.000 OA
ENDROOT
TORSDOF 0
REMARK  Name = ../refined-set-2016/1i5r/1i5r_pocket.pdb
REMARK  336 active torsions:
REMARK  status: ('A' for Active; 'I' for Inactive)
REMARK    1  A    between atoms: _1  and  _3
REMARK    2  A    between atoms: _3  and  _4
REMARK    3  A    between atoms: _3  and  _6
REMARK    4  A    between atoms: _6  and  _7
REMARK    5  A    between atoms: _10  and  _12
REMARK    6  A    between atoms: _12  and  _13
REMARK    7  A    between atoms: _12  and  _15
REMARK    8  A    between atoms: _15  and  _16
REMARK    9  A    between atoms: _19  and  _21
REMARK   10  A    between atoms: _21  and  _22
REMARK   11  A    between atoms: _24  and  _26
REMARK   12  A    between atoms: _26  and  _27
REMARK   13  A    between atoms: _26  and  _29
REMARK   14  A    between atoms: _31  and  _33
REMARK   15  A    between atoms: _33  and  _34
REMARK   16  A    between atoms: _33  and  _36
REMARK   17  A    between atoms: _36  and  _37
REMARK   18  A    between atoms: _39  and  _41
REMARK   19  A    between atoms: _41  and  _42
REMARK   20  A    between atoms: _41  and  _44
REMARK   21  A    between atoms: _44  and  _45
REMARK   22  A    between atoms: _47  and  _49
REMARK   23  A    between atoms: _49  and  _50
REMARK   24  A    between atoms: _52  and  _54
REMARK   25  A    between atoms: _54  and  _55
REMARK   26  A    between atoms: _54  and  _57
REMARK   27  A    between atoms: _57  and  _58
REMARK   28  A    between atoms: _61  and  _63
REMARK   29  A    between atoms: _63  and  _64
REMARK   30  A    between atoms: _66  and  _68
REMARK   31  A    between atoms: _68  and  _69
REMARK   32  A    between atoms: _68  and  _71
REMARK   33  A    between atoms: _71  and  _72
REMARK   34  A    between atoms: _75  and  _77
REMARK   35  A    between atoms: _77  and  _78
REMARK   36  A    between atoms: _77  and  _80
REMARK   37  A    between atoms: _80  and  _81
REMARK   38  A    between atoms: _86  and  _88
REMARK   39  A    between atoms: _88  and  _89
REMARK   40  A    between atoms: _88  and  _91
REMARK   41  A    between atoms: _91  and  _92
REMARK   42  A    between atoms: _95  and  _97
REMARK   43  A    between atoms: _97  and  _98
REMARK   44  A    between atoms: _97  and  _100
REMARK   45  A    between atoms: _100  and  _101
REMARK   46  A    between atoms: _104  and  _106
REMARK   47  A    between atoms: _106  and  _107
REMARK   48  A    between atoms: _106  and  _109
REMARK   49  A    between atoms: _109  and  _110
REMARK   50  A    between atoms: _110  and  _111
REMARK   51  A    between atoms: _111  and  _112
REMARK   52  A    between atoms: _121  and  _123
REMARK   53  A    between atoms: _123  and  _124
REMARK   54  A    between atoms: _123  and  _126
REMARK   55  A    between atoms: _126  and  _127
REMARK   56  A    between atoms: _130  and  _132
REMARK   57  A    between atoms: _132  and  _133
REMARK   58  A    between atoms: _132  and  _135
REMARK   59  A    between atoms: _135  and  _136
REMARK   60  A    between atoms: _139  and  _141
REMARK   61  A    between atoms: _141  and  _142
REMARK   62  A    between atoms: _141  and  _144
REMARK   63  A    between atoms: _144  and  _145
REMARK   64  A    between atoms: _145  and  _146
REMARK   65  A    between atoms: _146  and  _147
REMARK   66  A    between atoms: _156  and  _158
REMARK   67  A    between atoms: _158  and  _159
REMARK   68  A    between atoms: _158  and  _161
REMARK   69  A    between atoms: _161  and  _162
REMARK   70  A    between atoms: _165  and  _167
REMARK   71  A    between atoms: _167  and  _168
REMARK   72  A    between atoms: _167  and  _170
REMARK   73  A    between atoms: _170  and  _171
REMARK   74  A    between atoms: _171  and  _172
REMARK   75  A    between atoms: _177  and  _179
REMARK   76  A    between atoms: _179  and  _180
REMARK   77  A    between atoms: _179  and  _182
REMARK   78  A    between atoms: _182  and  _183
REMARK   79  A    between atoms: _186  and  _188
REMARK   80  A    between atoms: _188  and  _189
REMARK   81  A    between atoms: _188  and  _191
REMARK   82  A    between atoms: _191  and  _192
REMARK   83  A    between atoms: _195  and  _197
REMARK   84  A    between atoms: _197  and  _198
REMARK   85  A    between atoms: _197  and  _200
REMARK   86  A    between atoms: _203  and  _205
REMARK   87  A    between atoms: _205  and  _206
REMARK   88  A    between atoms: _205  and  _208
REMARK   89  A    between atoms: _208  and  _209
REMARK   90  A    between atoms: _209  and  _210
REMARK   91  A    between atoms: _210  and  _211
REMARK   92  A    between atoms: _220  and  _222
REMARK   93  A    between atoms: _222  and  _223
REMARK   94  A    between atoms: _222  and  _225
REMARK   95  A    between atoms: _225  and  _226
REMARK   96  A    between atoms: _229  and  _231
REMARK   97  A    between atoms: _231  and  _232
REMARK   98  A    between atoms: _231  and  _234
REMARK   99  A    between atoms: _234  and  _235
REMARK  100  A    between atoms: _237  and  _239
REMARK  101  A    between atoms: _239  and  _240
REMARK  102  A    between atoms: _239  and  _242
REMARK  103  A    between atoms: _245  and  _247
REMARK  104  A    between atoms: _247  and  _248
REMARK  105  A    between atoms: _247  and  _250
REMARK  106  A    between atoms: _252  and  _254
REMARK  107  A    between atoms: _254  and  _255
REMARK  108  A    between atoms: _254  and  _257
REMARK  109  A    between atoms: _257  and  _258
REMARK  110  A    between atoms: _263  and  _265
REMARK  111  A    between atoms: _265  and  _266
REMARK  112  A    between atoms: _269  and  _271
REMARK  113  A    between atoms: _271  and  _272
REMARK  114  A    between atoms: _274  and  _276
REMARK  115  A    between atoms: _276  and  _277
REMARK  116  A    between atoms: _276  and  _279
REMARK  117  A    between atoms: _279  and  _280
REMARK  118  A    between atoms: _283  and  _285
REMARK  119  A    between atoms: _285  and  _286
REMARK  120  A    between atoms: _288  and  _290
REMARK  121  A    between atoms: _290  and  _291
REMARK  122  A    between atoms: _290  and  _293
REMARK  123  A    between atoms: _293  and  _294
REMARK  124  A    between atoms: _297  and  _299
REMARK  125  A    between atoms: _299  and  _300
REMARK  126  A    between atoms: _299  and  _302
REMARK  127  A    between atoms: _302  and  _303
REMARK  128  A    between atoms: _306  and  _308
REMARK  129  A    between atoms: _308  and  _309
REMARK  130  A    between atoms: _308  and  _311
REMARK  131  A    between atoms: _311  and  _312
REMARK  132  A    between atoms: _314  and  _316
REMARK  133  A    between atoms: _316  and  _317
REMARK  134  A    between atoms: _316  and  _319
REMARK  135  A    between atoms: _319  and  _320
REMARK  136  A    between atoms: _323  and  _325
REMARK  137  A    between atoms: _325  and  _326
REMARK  138  A    between atoms: _325  and  _328
REMARK  139  A    between atoms: _331  and  _333
REMARK  140  A    between atoms: _333  and  _334
REMARK  141  A    between atoms: _333  and  _336
REMARK  142  A    between atoms: _336  and  _337
REMARK  143  A    between atoms: _342  and  _344
REMARK  144  A    between atoms: _344  and  _345
REMARK  145  A    between atoms: _347  and  _349
REMARK  146  A    between atoms: _349  and  _350
REMARK  147  A    between atoms: _349  and  _352
REMARK  148  A    between atoms: _352  and  _353
REMARK  149  A    between atoms: _353  and  _354
REMARK  150  A    between atoms: _354  and  _355
REMARK  151  A    between atoms: _364  and  _366
REMARK  152  A    between atoms: _366  and  _367
REMARK  153  A    between atoms: _366  and  _369
REMARK  154  A    between atoms: _369  and  _370
REMARK  155  A    between atoms: _370  and  _371
REMARK  156  A    between atoms: _373  and  _375
REMARK  157  A    between atoms: _375  and  _376
REMARK  158  A    between atoms: _375  and  _378
REMARK  159  A    between atoms: _378  and  _379
REMARK  160  A    between atoms: _382  and  _384
REMARK  161  A    between atoms: _384  and  _385
REMARK  162  A    between atoms: _387  and  _389
REMARK  163  A    between atoms: _389  and  _390
REMARK  164  A    between atoms: _389  and  _392
REMARK  165  A    between atoms: _392  and  _393
REMARK  166  A    between atoms: _395  and  _397
REMARK  167  A    between atoms: _397  and  _398
REMARK  168  A    between atoms: _397  and  _400
REMARK  169  A    between atoms: _403  and  _405
REMARK  170  A    between atoms: _405  and  _406
REMARK  171  A    between atoms: _408  and  _410
REMARK  172  A    between atoms: _410  and  _411
REMARK  173  A    between atoms: _413  and  _415
REMARK  174  A    between atoms: _415  and  _416
REMARK  175  A    between atoms: _415  and  _418
REMARK  176  A    between atoms: _418  and  _419
REMARK  177  A    between atoms: _422  and  _424
REMARK  178  A    between atoms: _424  and  _425
REMARK  179  A    between atoms: _424  and  _427
REMARK  180  A    between atoms: _427  and  _428
REMARK  181  A    between atoms: _428  and  _429
REMARK  182  A    between atoms: _431  and  _433
REMARK  183  A    between atoms: _433  and  _434
REMARK  184  A    between atoms: _436  and  _438
REMARK  185  A    between atoms: _438  and  _439
REMARK  186  A    between atoms: _438  and  _441
REMARK  187  A    between atoms: _441  and  _442
REMARK  188  A    between atoms: _446  and  _447
REMARK  189  A    between atoms: _452  and  _454
REMARK  190  A    between atoms: _454  and  _455
REMARK  191  A    between atoms: _454  and  _457
REMARK  192  A    between atoms: _457  and  _458
REMARK  193  A    between atoms: _463  and  _465
REMARK  194  A    between atoms: _465  and  _466
REMARK  195  A    between atoms: _465  and  _468
REMARK  196  A    between atoms: _468  and  _469
REMARK  197  A    between atoms: _474  and  _475
REMARK  198  A    between atoms: _477  and  _479
REMARK  199  A    between atoms: _479  and  _480
REMARK  200  A    between atoms: _479  and  _482
REMARK  201  A    between atoms: _484  and  _486
REMARK  202  A    between atoms: _486  and  _487
REMARK  203  A    between atoms: _486  and  _489
REMARK  204  A    between atoms: _489  and  _490
REMARK  205  A    between atoms: _490  and  _491
REMARK  206  A    between atoms: _491  and  _492
REMARK  207  A    between atoms: _492  and  _493
REMARK  208  A    between atoms: _497  and  _499
REMARK  209  A    between atoms: _499  and  _500
REMARK  210  A    between atoms: _499  and  _502
REMARK  211  A    between atoms: _502  and  _503
REMARK  212  A    between atoms: _503  and  _504
REMARK  213  A    between atoms: _507  and  _509
REMARK  214  A    between atoms: _509  and  _510
REMARK  215  A    between atoms: _509  and  _512
REMARK  216  A    between atoms: _514  and  _516
REMARK  217  A    between atoms: _516  and  _517
REMARK  218  A    between atoms: _520  and  _521
REMARK  219  A    between atoms: _526  and  _528
REMARK  220  A    between atoms: _528  and  _529
REMARK  221  A    between atoms: _528  and  _531
REMARK  222  A    between atoms: _534  and  _536
REMARK  223  A    between atoms: _536  and  _537
REMARK  224  A    between atoms: _536  and  _539
REMARK  225  A    between atoms: _539  and  _540
REMARK  226  A    between atoms: _543  and  _545
REMARK  227  A    between atoms: _545  and  _546
REMARK  228  A    between atoms: _545  and  _548
REMARK  229  A    between atoms: _548  and  _549
REMARK  230  A    between atoms: _555  and  _557
REMARK  231  A    between atoms: _557  and  _558
REMARK  232  A    between atoms: _557  and  _560
REMARK  233  A    between atoms: _560  and  _561
REMARK  234  A    between atoms: _561  and  _562
REMARK  235  A    between atoms: _564  and  _566
REMARK  236  A    between atoms: _566  and  _567
REMARK  237  A    between atoms: _566  and  _569
REMARK  238  A    between atoms: _569  and  _570
REMARK  239  A    between atoms: _570  and  _571
REMARK  240  A    between atoms: _574  and  _576
REMARK  241  A    between atoms: _576  and  _577
REMARK  242  A    between atoms: _576  and  _579
REMARK  243  A    between atoms: _579  and  _580
REMARK  244  A    between atoms: _580  and  _581
REMARK  245  A    between atoms: _581  and  _582
REMARK  246  A    between atoms: _582  and  _583
REMARK  247  A    between atoms: _587  and  _589
REMARK  248  A    between atoms: _589  and  _590
REMARK  249  A    between atoms: _589  and  _592
REMARK  250  A    between atoms: _592  and  _593
REMARK  251  A    between atoms: _598  and  _599
REMARK  252  A    between atoms: _601  and  _603
REMARK  253  A    between atoms: _603  and  _604
REMARK  254  A    between atoms: _603  and  _606
REMARK  255  A    between atoms: _606  and  _607
REMARK  256  A    between atoms: _610  and  _612
REMARK  257  A    between atoms: _612  and  _613
REMARK  258  A    between atoms: _612  and  _615
REMARK  259  A    between atoms: _615  and  _616
REMARK  260  A    between atoms: _621  and  _623
REMARK  261  A    between atoms: _623  and  _624
REMARK  262  A    between atoms: _623  and  _626
REMARK  263  A    between atoms: _626  and  _627
REMARK  264  A    between atoms: _629  and  _631
REMARK  265  A    between atoms: _631  and  _632
REMARK  266  A    between atoms: _631  and  _634
REMARK  267  A    between atoms: _634  and  _635
REMARK  268  A    between atoms: _635  and  _636
REMARK  269  A    between atoms: _636  and  _637
REMARK  270  A    between atoms: _637  and  _638
REMARK  271  A    between atoms: _642  and  _644
REMARK  272  A    between atoms: _644  and  _645
REMARK  273  A    between atoms: _644  and  _647
REMARK  274  A    between atoms: _647  and  _648
REMARK  275  A    between atoms: _648  and  _649
REMARK  276  A    between atoms: _654  and  _656
REMARK  277  A    between atoms: _656  and  _657
REMARK  278  A    between atoms: _656  and  _659
REMARK  279  A    between atoms: _662  and  _664
REMARK  280  A    between atoms: _664  and  _665
REMARK  281  A    between atoms: _664  and  _667
REMARK  282  A    between atoms: _667  and  _668
REMARK  283  A    between atoms: _674  and  _676
REMARK  284  A    between atoms: _676  and  _677
REMARK  285  A    between atoms: _680  and  _682
REMARK  286  A    between atoms: _682  and  _683
REMARK  287  A    between atoms: _682  and  _685
REMARK  288  A    between atoms: _685  and  _686
REMARK  289  A    between atoms: _689  and  _691
REMARK  290  A    between atoms: _691  and  _692
REMARK  291  A    between atoms: _691  and  _694
REMARK  292  A    between atoms: _694  and  _695
REMARK  293  A    between atoms: _695  and  _696
REMARK  294  A    between atoms: _696  and  _697
REMARK  295  A    between atoms: _706  and  _708
REMARK  296  A    between atoms: _708  and  _709
REMARK  297  A    between atoms: _708  and  _711
REMARK  298  A    between atoms: _711  and  _712
REMARK  299  A    between atoms: _718  and  _720
REMARK  300  A    between atoms: _720  and  _721
REMARK  301  A    between atoms: _720  and  _723
REMARK  302  A    between atoms: _723  and  _724
REMARK  303  A    between atoms: _727  and  _729
REMARK  304  A    between atoms: _729  and  _730
REMARK  305  A    between atoms: _729  and  _732
REMARK  306  A    between atoms: _732  and  _733
REMARK  307  A    between atoms: _738  and  _739
REMARK  308  A    between atoms: _741  and  _743
REMARK  309  A    between atoms: _743  and  _744
REMARK  310  A    between atoms: _747  and  _749
REMARK  311  A    between atoms: _749  and  _750
REMARK  312  A    between atoms: _749  and  _752
REMARK  313  A    between atoms: _752  and  _753
REMARK  314  A    between atoms: _753  and  _754
REMARK  315  A    between atoms: _756  and  _758
REMARK  316  A    between atoms: _758  and  _759
REMARK  317  A    between atoms: _758  and  _761
REMARK  318  A    between atoms: _761  and  _762
REMARK  319  A    between atoms: _767  and  _769
REMARK  320  A    between atoms: _769  and  _770
REMARK  321  A    between atoms: _769  and  _772
REMARK  322  A    between atoms: _772  and  _773
REMARK  323  A    between atoms: _773  and  _774
REMARK  324  A    between atoms: _774  and  _775
REMARK  325  A    between atoms: _784  and  _786
REMARK  326  A    between atoms: _786  and  _787
REMARK  327  A    between atoms: _786  and  _789
REMARK  328  A    between atoms: _789  and  _790
REMARK  329  A    between atoms: _790  and  _791
REMARK  330  A    between atoms: _794  and  _796
REMARK  331  A    between atoms: _796  and  _797
REMARK  332  A    between atoms: _796  and  _799
REMARK  333  A    between atoms: _802  and  _804
REMARK  334  A    between atoms: _804  and  _805
REMARK  335  A    between atoms: _804  and  _807
REMARK  336  A    between atoms: _807  and  _808
REMARK                            x       y       z     vdW  Elec       q    Type
REMARK                         _______ _______ _______ _____ _____    ______ ____
ROOT
ATOM      1  O   HOH     1      14.142 -16.842   4.018  0.00  0.00    +0.000 OA
ENDROOT
TORSDOF 0
REMARK  Name = ../refined-set-2016/1i5r/1i5r_pocket.pdb
REMARK  336 active torsions:
REMARK  status: ('A' for Active; 'I' for Inactive)
REMARK    1  A    between atoms: _1  and  _3
REMARK    2  A    between atoms: _3  and  _4
REMARK    3  A    between atoms: _3  and  _6
REMARK    4  A    between atoms: _6  and  _7
REMARK    5  A    between atoms: _10  and  _12
REMARK    6  A    between atoms: _12  and  _13
REMARK    7  A    between atoms: _12  and  _15
REMARK    8  A    between atoms: _15  and  _16
REMARK    9  A    between atoms: _19  and  _21
REMARK   10  A    between atoms: _21  and  _22
REMARK   11  A    between atoms: _24  and  _26
REMARK   12  A    between atoms: _26  and  _27
REMARK   13  A    between atoms: _26  and  _29
REMARK   14  A    between atoms: _31  and  _33
REMARK   15  A    between atoms: _33  and  _34
REMARK   16  A    between atoms: _33  and  _36
REMARK   17  A    between atoms: _36  and  _37
REMARK   18  A    between atoms: _39  and  _41
REMARK   19  A    between atoms: _41  and  _42
REMARK   20  A    between atoms: _41  and  _44
REMARK   21  A    between atoms: _44  and  _45
REMARK   22  A    between atoms: _47  and  _49
REMARK   23  A    between atoms: _49  and  _50
REMARK   24  A    between atoms: _52  and  _54
REMARK   25  A    between atoms: _54  and  _55
REMARK   26  A    between atoms: _54  and  _57
REMARK   27  A    between atoms: _57  and  _58
REMARK   28  A    between atoms: _61  and  _63
REMARK   29  A    between atoms: _63  and  _64
REMARK   30  A    between atoms: _66  and  _68
REMARK   31  A    between atoms: _68  and  _69
REMARK   32  A    between atoms: _68  and  _71
REMARK   33  A    between atoms: _71  and  _72
REMARK   34  A    between atoms: _75  and  _77
REMARK   35  A    between atoms: _77  and  _78
REMARK   36  A    between atoms: _77  and  _80
REMARK   37  A    between atoms: _80  and  _81
REMARK   38  A    between atoms: _86  and  _88
REMARK   39  A    between atoms: _88  and  _89
REMARK   40  A    between atoms: _88  and  _91
REMARK   41  A    between atoms: _91  and  _92
REMARK   42  A    between atoms: _95  and  _97
REMARK   43  A    between atoms: _97  and  _98
REMARK   44  A    between atoms: _97  and  _100
REMARK   45  A    between atoms: _100  and  _101
REMARK   46  A    between atoms: _104  and  _106
REMARK   47  A    between atoms: _106  and  _107
REMARK   48  A    between atoms: _106  and  _109
REMARK   49  A    between atoms: _109  and  _110
REMARK   50  A    between atoms: _110  and  _111
REMARK   51  A    between atoms: _111  and  _112
REMARK   52  A    between atoms: _121  and  _123
REMARK   53  A    between atoms: _123  and  _124
REMARK   54  A    between atoms: _123  and  _126
REMARK   55  A    between atoms: _126  and  _127
REMARK   56  A    between atoms: _130  and  _132
REMARK   57  A    between atoms: _132  and  _133
REMARK   58  A    between atoms: _132  and  _135
REMARK   59  A    between atoms: _135  and  _136
REMARK   60  A    between atoms: _139  and  _141
REMARK   61  A    between atoms: _141  and  _142
REMARK   62  A    between atoms: _141  and  _144
REMARK   63  A    between atoms: _144  and  _145
REMARK   64  A    between atoms: _145  and  _146
REMARK   65  A    between atoms: _146  and  _147
REMARK   66  A    between atoms: _156  and  _158
REMARK   67  A    between atoms: _158  and  _159
REMARK   68  A    between atoms: _158  and  _161
REMARK   69  A    between atoms: _161  and  _162
REMARK   70  A    between atoms: _165  and  _167
REMARK   71  A    between atoms: _167  and  _168
REMARK   72  A    between atoms: _167  and  _170
REMARK   73  A    between atoms: _170  and  _171
REMARK   74  A    between atoms: _171  and  _172
REMARK   75  A    between atoms: _177  and  _179
REMARK   76  A    between atoms: _179  and  _180
REMARK   77  A    between atoms: _179  and  _182
REMARK   78  A    between atoms: _182  and  _183
REMARK   79  A    between atoms: _186  and  _188
REMARK   80  A    between atoms: _188  and  _189
REMARK   81  A    between atoms: _188  and  _191
REMARK   82  A    between atoms: _191  and  _192
REMARK   83  A    between atoms: _195  and  _197
REMARK   84  A    between atoms: _197  and  _198
REMARK   85  A    between atoms: _197  and  _200
REMARK   86  A    between atoms: _203  and  _205
REMARK   87  A    between atoms: _205  and  _206
REMARK   88  A    between atoms: _205  and  _208
REMARK   89  A    between atoms: _208  and  _209
REMARK   90  A    between atoms: _209  and  _210
REMARK   91  A    between atoms: _210  and  _211
REMARK   92  A    between atoms: _220  and  _222
REMARK   93  A    between atoms: _222  and  _223
REMARK   94  A    between atoms: _222  and  _225
REMARK   95  A    between atoms: _225  and  _226
REMARK   96  A    between atoms: _229  and  _231
REMARK   97  A    between atoms: _231  and  _232
REMARK   98  A    between atoms: _231  and  _234
REMARK   99  A    between atoms: _234  and  _235
REMARK  100  A    between atoms: _237  and  _239
REMARK  101  A    between atoms: _239  and  _240
REMARK  102  A    between atoms: _239  and  _242
REMARK  103  A    between atoms: _245  and  _247
REMARK  104  A    between atoms: _247  and  _248
REMARK  105  A    between atoms: _247  and  _250
REMARK  106  A    between atoms: _252  and  _254
REMARK  107  A    between atoms: _254  and  _255
REMARK  108  A    between atoms: _254  and  _257
REMARK  109  A    between atoms: _257  and  _258
REMARK  110  A    between atoms: _263  and  _265
REMARK  111  A    between atoms: _265  and  _266
REMARK  112  A    between atoms: _269  and  _271
REMARK  113  A    between atoms: _271  and  _272
REMARK  114  A    between atoms: _274  and  _276
REMARK  115  A    between atoms: _276  and  _277
REMARK  116  A    between atoms: _276  and  _279
REMARK  117  A    between atoms: _279  and  _280
REMARK  118  A    between atoms: _283  and  _285
REMARK  119  A    between atoms: _285  and  _286
REMARK  120  A    between atoms: _288  and  _290
REMARK  121  A    between atoms: _290  and  _291
REMARK  122  A    between atoms: _290  and  _293
REMARK  123  A    between atoms: _293  and  _294
REMARK  124  A    between atoms: _297  and  _299
REMARK  125  A    between atoms: _299  and  _300
REMARK  126  A    between atoms: _299  and  _302
REMARK  127  A    between atoms: _302  and  _303
REMARK  128  A    between atoms: _306  and  _308
REMARK  129  A    between atoms: _308  and  _309
REMARK  130  A    between atoms: _308  and  _311
REMARK  131  A    between atoms: _311  and  _312
REMARK  132  A    between atoms: _314  and  _316
REMARK  133  A    between atoms: _316  and  _317
REMARK  134  A    between atoms: _316  and  _319
REMARK  135  A    between atoms: _319  and  _320
REMARK  136  A    between atoms: _323  and  _325
REMARK  137  A    between atoms: _325  and  _326
REMARK  138  A    between atoms: _325  and  _328
REMARK  139  A    between atoms: _331  and  _333
REMARK  140  A    between atoms: _333  and  _334
REMARK  141  A    between atoms: _333  and  _336
REMARK  142  A    between atoms: _336  and  _337
REMARK  143  A    between atoms: _342  and  _344
REMARK  144  A    between atoms: _344  and  _345
REMARK  145  A    between atoms: _347  and  _349
REMARK  146  A    between atoms: _349  and  _350
REMARK  147  A    between atoms: _349  and  _352
REMARK  148  A    between atoms: _352  and  _353
REMARK  149  A    between atoms: _353  and  _354
REMARK  150  A    between atoms: _354  and  _355
REMARK  151  A    between atoms: _364  and  _366
REMARK  152  A    between atoms: _366  and  _367
REMARK  153  A    between atoms: _366  and  _369
REMARK  154  A    between atoms: _369  and  _370
REMARK  155  A    between atoms: _370  and  _371
REMARK  156  A    between atoms: _373  and  _375
REMARK  157  A    between atoms: _375  and  _376
REMARK  158  A    between atoms: _375  and  _378
REMARK  159  A    between atoms: _378  and  _379
REMARK  160  A    between atoms: _382  and  _384
REMARK  161  A    between atoms: _384  and  _385
REMARK  162  A    between atoms: _387  and  _389
REMARK  163  A    between atoms: _389  and  _390
REMARK  164  A    between atoms: _389  and  _392
REMARK  165  A    between atoms: _392  and  _393
REMARK  166  A    between atoms: _395  and  _397
REMARK  167  A    between atoms: _397  and  _398
REMARK  168  A    between atoms: _397  and  _400
REMARK  169  A    between atoms: _403  and  _405
REMARK  170  A    between atoms: _405  and  _406
REMARK  171  A    between atoms: _408  and  _410
REMARK  172  A    between atoms: _410  and  _411
REMARK  173  A    between atoms: _413  and  _415
REMARK  174  A    between atoms: _415  and  _416
REMARK  175  A    between atoms: _415  and  _418
REMARK  176  A    between atoms: _418  and  _419
REMARK  177  A    between atoms: _422  and  _424
REMARK  178  A    between atoms: _424  and  _425
REMARK  179  A    between atoms: _424  and  _427
REMARK  180  A    between atoms: _427  and  _428
REMARK  181  A    between atoms: _428  and  _429
REMARK  182  A    between atoms: _431  and  _433
REMARK  183  A    between atoms: _433  and  _434
REMARK  184  A    between atoms: _436  and  _438
REMARK  185  A    between atoms: _438  and  _439
REMARK  186  A    between atoms: _438  and  _441
REMARK  187  A    between atoms: _441  and  _442
REMARK  188  A    between atoms: _446  and  _447
REMARK  189  A    between atoms: _452  and  _454
REMARK  190  A    between atoms: _454  and  _455
REMARK  191  A    between atoms: _454  and  _457
REMARK  192  A    between atoms: _457  and  _458
REMARK  193  A    between atoms: _463  and  _465
REMARK  194  A    between atoms: _465  and  _466
REMARK  195  A    between atoms: _465  and  _468
REMARK  196  A    between atoms: _468  and  _469
REMARK  197  A    between atoms: _474  and  _475
REMARK  198  A    between atoms: _477  and  _479
REMARK  199  A    between atoms: _479  and  _480
REMARK  200  A    between atoms: _479  and  _482
REMARK  201  A    between atoms: _484  and  _486
REMARK  202  A    between atoms: _486  and  _487
REMARK  203  A    between atoms: _486  and  _489
REMARK  204  A    between atoms: _489  and  _490
REMARK  205  A    between atoms: _490  and  _491
REMARK  206  A    between atoms: _491  and  _492
REMARK  207  A    between atoms: _492  and  _493
REMARK  208  A    between atoms: _497  and  _499
REMARK  209  A    between atoms: _499  and  _500
REMARK  210  A    between atoms: _499  and  _502
REMARK  211  A    between atoms: _502  and  _503
REMARK  212  A    between atoms: _503  and  _504
REMARK  213  A    between atoms: _507  and  _509
REMARK  214  A    between atoms: _509  and  _510
REMARK  215  A    between atoms: _509  and  _512
REMARK  216  A    between atoms: _514  and  _516
REMARK  217  A    between atoms: _516  and  _517
REMARK  218  A    between atoms: _520  and  _521
REMARK  219  A    between atoms: _526  and  _528
REMARK  220  A    between atoms: _528  and  _529
REMARK  221  A    between atoms: _528  and  _531
REMARK  222  A    between atoms: _534  and  _536
REMARK  223  A    between atoms: _536  and  _537
REMARK  224  A    between atoms: _536  and  _539
REMARK  225  A    between atoms: _539  and  _540
REMARK  226  A    between atoms: _543  and  _545
REMARK  227  A    between atoms: _545  and  _546
REMARK  228  A    between atoms: _545  and  _548
REMARK  229  A    between atoms: _548  and  _549
REMARK  230  A    between atoms: _555  and  _557
REMARK  231  A    between atoms: _557  and  _558
REMARK  232  A    between atoms: _557  and  _560
REMARK  233  A    between atoms: _560  and  _561
REMARK  234  A    between atoms: _561  and  _562
REMARK  235  A    between atoms: _564  and  _566
REMARK  236  A    between atoms: _566  and  _567
REMARK  237  A    between atoms: _566  and  _569
REMARK  238  A    between atoms: _569  and  _570
REMARK  239  A    between atoms: _570  and  _571
REMARK  240  A    between atoms: _574  and  _576
REMARK  241  A    between atoms: _576  and  _577
REMARK  242  A    between atoms: _576  and  _579
REMARK  243  A    between atoms: _579  and  _580
REMARK  244  A    between atoms: _580  and  _581
REMARK  245  A    between atoms: _581  and  _582
REMARK  246  A    between atoms: _582  and  _583
REMARK  247  A    between atoms: _587  and  _589
REMARK  248  A    between atoms: _589  and  _590
REMARK  249  A    between atoms: _589  and  _592
REMARK  250  A    between atoms: _592  and  _593
REMARK  251  A    between atoms: _598  and  _599
REMARK  252  A    between atoms: _601  and  _603
REMARK  253  A    between atoms: _603  and  _604
REMARK  254  A    between atoms: _603  and  _606
REMARK  255  A    between atoms: _606  and  _607
REMARK  256  A    between atoms: _610  and  _612
REMARK  257  A    between atoms: _612  and  _613
REMARK  258  A    between atoms: _612  and  _615
REMARK  259  A    between atoms: _615  and  _616
REMARK  260  A    between atoms: _621  and  _623
REMARK  261  A    between atoms: _623  and  _624
REMARK  262  A    between atoms: _623  and  _626
REMARK  263  A    between atoms: _626  and  _627
REMARK  264  A    between atoms: _629  and  _631
REMARK  265  A    between atoms: _631  and  _632
REMARK  266  A    between atoms: _631  and  _634
REMARK  267  A    between atoms: _634  and  _635
REMARK  268  A    between atoms: _635  and  _636
REMARK  269  A    between atoms: _636  and  _637
REMARK  270  A    between atoms: _637  and  _638
REMARK  271  A    between atoms: _642  and  _644
REMARK  272  A    between atoms: _644  and  _645
REMARK  273  A    between atoms: _644  and  _647
REMARK  274  A    between atoms: _647  and  _648
REMARK  275  A    between atoms: _648  and  _649
REMARK  276  A    between atoms: _654  and  _656
REMARK  277  A    between atoms: _656  and  _657
REMARK  278  A    between atoms: _656  and  _659
REMARK  279  A    between atoms: _662  and  _664
REMARK  280  A    between atoms: _664  and  _665
REMARK  281  A    between atoms: _664  and  _667
REMARK  282  A    between atoms: _667  and  _668
REMARK  283  A    between atoms: _674  and  _676
REMARK  284  A    between atoms: _676  and  _677
REMARK  285  A    between atoms: _680  and  _682
REMARK  286  A    between atoms: _682  and  _683
REMARK  287  A    between atoms: _682  and  _685
REMARK  288  A    between atoms: _685  and  _686
REMARK  289  A    between atoms: _689  and  _691
REMARK  290  A    between atoms: _691  and  _692
REMARK  291  A    between atoms: _691  and  _694
REMARK  292  A    between atoms: _694  and  _695
REMARK  293  A    between atoms: _695  and  _696
REMARK  294  A    between atoms: _696  and  _697
REMARK  295  A    between atoms: _706  and  _708
REMARK  296  A    between atoms: _708  and  _709
REMARK  297  A    between atoms: _708  and  _711
REMARK  298  A    between atoms: _711  and  _712
REMARK  299  A    between atoms: _718  and  _720
REMARK  300  A    between atoms: _720  and  _721
REMARK  301  A    between atoms: _720  and  _723
REMARK  302  A    between atoms: _723  and  _724
REMARK  303  A    between atoms: _727  and  _729
REMARK  304  A    between atoms: _729  and  _730
REMARK  305  A    between atoms: _729  and  _732
REMARK  306  A    between atoms: _732  and  _733
REMARK  307  A    between atoms: _738  and  _739
REMARK  308  A    between atoms: _741  and  _743
REMARK  309  A    between atoms: _743  and  _744
REMARK  310  A    between atoms: _747  and  _749
REMARK  311  A    between atoms: _749  and  _750
REMARK  312  A    between atoms: _749  and  _752
REMARK  313  A    between atoms: _752  and  _753
REMARK  314  A    between atoms: _753  and  _754
REMARK  315  A    between atoms: _756  and  _758
REMARK  316  A    between atoms: _758  and  _759
REMARK  317  A    between atoms: _758  and  _761
REMARK  318  A    between atoms: _761  and  _762
REMARK  319  A    between atoms: _767  and  _769
REMARK  320  A    between atoms: _769  and  _770
REMARK  321  A    between atoms: _769  and  _772
REMARK  322  A    between atoms: _772  and  _773
REMARK  323  A    between atoms: _773  and  _774
REMARK  324  A    between atoms: _774  and  _775
REMARK  325  A    between atoms: _784  and  _786
REMARK  326  A    between atoms: _786  and  _787
REMARK  327  A    between atoms: _786  and  _789
REMARK  328  A    between atoms: _789  and  _790
REMARK  329  A    between atoms: _790  and  _791
REMARK  330  A    between atoms: _794  and  _796
REMARK  331  A    between atoms: _796  and  _797
REMARK  332  A    between atoms: _796  and  _799
REMARK  333  A    between atoms: _802  and  _804
REMARK  334  A    between atoms: _804  and  _805
REMARK  335  A    between atoms: _804  and  _807
REMARK  336  A    between atoms: _807  and  _808
REMARK                            x       y       z     vdW  Elec       q    Type
REMARK                         _______ _______ _______ _____ _____    ______ ____
ROOT
ATOM      1  O   HOH     1       8.979  -7.334  -9.544  0.00  0.00    +0.000 OA
ENDROOT
TORSDOF 0
REMARK  Name = ../refined-set-2016/1i5r/1i5r_pocket.pdb
REMARK  336 active torsions:
REMARK  status: ('A' for Active; 'I' for Inactive)
REMARK    1  A    between atoms: _1  and  _3
REMARK    2  A    between atoms: _3  and  _4
REMARK    3  A    between atoms: _3  and  _6
REMARK    4  A    between atoms: _6  and  _7
REMARK    5  A    between atoms: _10  and  _12
REMARK    6  A    between atoms: _12  and  _13
REMARK    7  A    between atoms: _12  and  _15
REMARK    8  A    between atoms: _15  and  _16
REMARK    9  A    between atoms: _19  and  _21
REMARK   10  A    between atoms: _21  and  _22
REMARK   11  A    between atoms: _24  and  _26
REMARK   12  A    between atoms: _26  and  _27
REMARK   13  A    between atoms: _26  and  _29
REMARK   14  A    between atoms: _31  and  _33
REMARK   15  A    between atoms: _33  and  _34
REMARK   16  A    between atoms: _33  and  _36
REMARK   17  A    between atoms: _36  and  _37
REMARK   18  A    between atoms: _39  and  _41
REMARK   19  A    between atoms: _41  and  _42
REMARK   20  A    between atoms: _41  and  _44
REMARK   21  A    between atoms: _44  and  _45
REMARK   22  A    between atoms: _47  and  _49
REMARK   23  A    between atoms: _49  and  _50
REMARK   24  A    between atoms: _52  and  _54
REMARK   25  A    between atoms: _54  and  _55
REMARK   26  A    between atoms: _54  and  _57
REMARK   27  A    between atoms: _57  and  _58
REMARK   28  A    between atoms: _61  and  _63
REMARK   29  A    between atoms: _63  and  _64
REMARK   30  A    between atoms: _66  and  _68
REMARK   31  A    between atoms: _68  and  _69
REMARK   32  A    between atoms: _68  and  _71
REMARK   33  A    between atoms: _71  and  _72
REMARK   34  A    between atoms: _75  and  _77
REMARK   35  A    between atoms: _77  and  _78
REMARK   36  A    between atoms: _77  and  _80
REMARK   37  A    between atoms: _80  and  _81
REMARK   38  A    between atoms: _86  and  _88
REMARK   39  A    between atoms: _88  and  _89
REMARK   40  A    between atoms: _88  and  _91
REMARK   41  A    between atoms: _91  and  _92
REMARK   42  A    between atoms: _95  and  _97
REMARK   43  A    between atoms: _97  and  _98
REMARK   44  A    between atoms: _97  and  _100
REMARK   45  A    between atoms: _100  and  _101
REMARK   46  A    between atoms: _104  and  _106
REMARK   47  A    between atoms: _106  and  _107
REMARK   48  A    between atoms: _106  and  _109
REMARK   49  A    between atoms: _109  and  _110
REMARK   50  A    between atoms: _110  and  _111
REMARK   51  A    between atoms: _111  and  _112
REMARK   52  A    between atoms: _121  and  _123
REMARK   53  A    between atoms: _123  and  _124
REMARK   54  A    between atoms: _123  and  _126
REMARK   55  A    between atoms: _126  and  _127
REMARK   56  A    between atoms: _130  and  _132
REMARK   57  A    between atoms: _132  and  _133
REMARK   58  A    between atoms: _132  and  _135
REMARK   59  A    between atoms: _135  and  _136
REMARK   60  A    between atoms: _139  and  _141
REMARK   61  A    between atoms: _141  and  _142
REMARK   62  A    between atoms: _141  and  _144
REMARK   63  A    between atoms: _144  and  _145
REMARK   64  A    between atoms: _145  and  _146
REMARK   65  A    between atoms: _146  and  _147
REMARK   66  A    between atoms: _156  and  _158
REMARK   67  A    between atoms: _158  and  _159
REMARK   68  A    between atoms: _158  and  _161
REMARK   69  A    between atoms: _161  and  _162
REMARK   70  A    between atoms: _165  and  _167
REMARK   71  A    between atoms: _167  and  _168
REMARK   72  A    between atoms: _167  and  _170
REMARK   73  A    between atoms: _170  and  _171
REMARK   74  A    between atoms: _171  and  _172
REMARK   75  A    between atoms: _177  and  _179
REMARK   76  A    between atoms: _179  and  _180
REMARK   77  A    between atoms: _179  and  _182
REMARK   78  A    between atoms: _182  and  _183
REMARK   79  A    between atoms: _186  and  _188
REMARK   80  A    between atoms: _188  and  _189
REMARK   81  A    between atoms: _188  and  _191
REMARK   82  A    between atoms: _191  and  _192
REMARK   83  A    between atoms: _195  and  _197
REMARK   84  A    between atoms: _197  and  _198
REMARK   85  A    between atoms: _197  and  _200
REMARK   86  A    between atoms: _203  and  _205
REMARK   87  A    between atoms: _205  and  _206
REMARK   88  A    between atoms: _205  and  _208
REMARK   89  A    between atoms: _208  and  _209
REMARK   90  A    between atoms: _209  and  _210
REMARK   91  A    between atoms: _210  and  _211
REMARK   92  A    between atoms: _220  and  _222
REMARK   93  A    between atoms: _222  and  _223
REMARK   94  A    between atoms: _222  and  _225
REMARK   95  A    between atoms: _225  and  _226
REMARK   96  A    between atoms: _229  and  _231
REMARK   97  A    between atoms: _231  and  _232
REMARK   98  A    between atoms: _231  and  _234
REMARK   99  A    between atoms: _234  and  _235
REMARK  100  A    between atoms: _237  and  _239
REMARK  101  A    between atoms: _239  and  _240
REMARK  102  A    between atoms: _239  and  _242
REMARK  103  A    between atoms: _245  and  _247
REMARK  104  A    between atoms: _247  and  _248
REMARK  105  A    between atoms: _247  and  _250
REMARK  106  A    between atoms: _252  and  _254
REMARK  107  A    between atoms: _254  and  _255
REMARK  108  A    between atoms: _254  and  _257
REMARK  109  A    between atoms: _257  and  _258
REMARK  110  A    between atoms: _263  and  _265
REMARK  111  A    between atoms: _265  and  _266
REMARK  112  A    between atoms: _269  and  _271
REMARK  113  A    between atoms: _271  and  _272
REMARK  114  A    between atoms: _274  and  _276
REMARK  115  A    between atoms: _276  and  _277
REMARK  116  A    between atoms: _276  and  _279
REMARK  117  A    between atoms: _279  and  _280
REMARK  118  A    between atoms: _283  and  _285
REMARK  119  A    between atoms: _285  and  _286
REMARK  120  A    between atoms: _288  and  _290
REMARK  121  A    between atoms: _290  and  _291
REMARK  122  A    between atoms: _290  and  _293
REMARK  123  A    between atoms: _293  and  _294
REMARK  124  A    between atoms: _297  and  _299
REMARK  125  A    between atoms: _299  and  _300
REMARK  126  A    between atoms: _299  and  _302
REMARK  127  A    between atoms: _302  and  _303
REMARK  128  A    between atoms: _306  and  _308
REMARK  129  A    between atoms: _308  and  _309
REMARK  130  A    between atoms: _308  and  _311
REMARK  131  A    between atoms: _311  and  _312
REMARK  132  A    between atoms: _314  and  _316
REMARK  133  A    between atoms: _316  and  _317
REMARK  134  A    between atoms: _316  and  _319
REMARK  135  A    between atoms: _319  and  _320
REMARK  136  A    between atoms: _323  and  _325
REMARK  137  A    between atoms: _325  and  _326
REMARK  138  A    between atoms: _325  and  _328
REMARK  139  A    between atoms: _331  and  _333
REMARK  140  A    between atoms: _333  and  _334
REMARK  141  A    between atoms: _333  and  _336
REMARK  142  A    between atoms: _336  and  _337
REMARK  143  A    between atoms: _342  and  _344
REMARK  144  A    between atoms: _344  and  _345
REMARK  145  A    between atoms: _347  and  _349
REMARK  146  A    between atoms: _349  and  _350
REMARK  147  A    between atoms: _349  and  _352
REMARK  148  A    between atoms: _352  and  _353
REMARK  149  A    between atoms: _353  and  _354
REMARK  150  A    between atoms: _354  and  _355
REMARK  151  A    between atoms: _364  and  _366
REMARK  152  A    between atoms: _366  and  _367
REMARK  153  A    between atoms: _366  and  _369
REMARK  154  A    between atoms: _369  and  _370
REMARK  155  A    between atoms: _370  and  _371
REMARK  156  A    between atoms: _373  and  _375
REMARK  157  A    between atoms: _375  and  _376
REMARK  158  A    between atoms: _375  and  _378
REMARK  159  A    between atoms: _378  and  _379
REMARK  160  A    between atoms: _382  and  _384
REMARK  161  A    between atoms: _384  and  _385
REMARK  162  A    between atoms: _387  and  _389
REMARK  163  A    between atoms: _389  and  _390
REMARK  164  A    between atoms: _389  and  _392
REMARK  165  A    between atoms: _392  and  _393
REMARK  166  A    between atoms: _395  and  _397
REMARK  167  A    between atoms: _397  and  _398
REMARK  168  A    between atoms: _397  and  _400
REMARK  169  A    between atoms: _403  and  _405
REMARK  170  A    between atoms: _405  and  _406
REMARK  171  A    between atoms: _408  and  _410
REMARK  172  A    between atoms: _410  and  _411
REMARK  173  A    between atoms: _413  and  _415
REMARK  174  A    between atoms: _415  and  _416
REMARK  175  A    between atoms: _415  and  _418
REMARK  176  A    between atoms: _418  and  _419
REMARK  177  A    between atoms: _422  and  _424
REMARK  178  A    between atoms: _424  and  _425
REMARK  179  A    between atoms: _424  and  _427
REMARK  180  A    between atoms: _427  and  _428
REMARK  181  A    between atoms: _428  and  _429
REMARK  182  A    between atoms: _431  and  _433
REMARK  183  A    between atoms: _433  and  _434
REMARK  184  A    between atoms: _436  and  _438
REMARK  185  A    between atoms: _438  and  _439
REMARK  186  A    between atoms: _438  and  _441
REMARK  187  A    between atoms: _441  and  _442
REMARK  188  A    between atoms: _446  and  _447
REMARK  189  A    between atoms: _452  and  _454
REMARK  190  A    between atoms: _454  and  _455
REMARK  191  A    between atoms: _454  and  _457
REMARK  192  A    between atoms: _457  and  _458
REMARK  193  A    between atoms: _463  and  _465
REMARK  194  A    between atoms: _465  and  _466
REMARK  195  A    between atoms: _465  and  _468
REMARK  196  A    between atoms: _468  and  _469
REMARK  197  A    between atoms: _474  and  _475
REMARK  198  A    between atoms: _477  and  _479
REMARK  199  A    between atoms: _479  and  _480
REMARK  200  A    between atoms: _479  and  _482
REMARK  201  A    between atoms: _484  and  _486
REMARK  202  A    between atoms: _486  and  _487
REMARK  203  A    between atoms: _486  and  _489
REMARK  204  A    between atoms: _489  and  _490
REMARK  205  A    between atoms: _490  and  _491
REMARK  206  A    between atoms: _491  and  _492
REMARK  207  A    between atoms: _492  and  _493
REMARK  208  A    between atoms: _497  and  _499
REMARK  209  A    between atoms: _499  and  _500
REMARK  210  A    between atoms: _499  and  _502
REMARK  211  A    between atoms: _502  and  _503
REMARK  212  A    between atoms: _503  and  _504
REMARK  213  A    between atoms: _507  and  _509
REMARK  214  A    between atoms: _509  and  _510
REMARK  215  A    between atoms: _509  and  _512
REMARK  216  A    between atoms: _514  and  _516
REMARK  217  A    between atoms: _516  and  _517
REMARK  218  A    between atoms: _520  and  _521
REMARK  219  A    between atoms: _526  and  _528
REMARK  220  A    between atoms: _528  and  _529
REMARK  221  A    between atoms: _528  and  _531
REMARK  222  A    between atoms: _534  and  _536
REMARK  223  A    between atoms: _536  and  _537
REMARK  224  A    between atoms: _536  and  _539
REMARK  225  A    between atoms: _539  and  _540
REMARK  226  A    between atoms: _543  and  _545
REMARK  227  A    between atoms: _545  and  _546
REMARK  228  A    between atoms: _545  and  _548
REMARK  229  A    between atoms: _548  and  _549
REMARK  230  A    between atoms: _555  and  _557
REMARK  231  A    between atoms: _557  and  _558
REMARK  232  A    between atoms: _557  and  _560
REMARK  233  A    between atoms: _560  and  _561
REMARK  234  A    between atoms: _561  and  _562
REMARK  235  A    between atoms: _564  and  _566
REMARK  236  A    between atoms: _566  and  _567
REMARK  237  A    between atoms: _566  and  _569
REMARK  238  A    between atoms: _569  and  _570
REMARK  239  A    between atoms: _570  and  _571
REMARK  240  A    between atoms: _574  and  _576
REMARK  241  A    between atoms: _576  and  _577
REMARK  242  A    between atoms: _576  and  _579
REMARK  243  A    between atoms: _579  and  _580
REMARK  244  A    between atoms: _580  and  _581
REMARK  245  A    between atoms: _581  and  _582
REMARK  246  A    between atoms: _582  and  _583
REMARK  247  A    between atoms: _587  and  _589
REMARK  248  A    between atoms: _589  and  _590
REMARK  249  A    between atoms: _589  and  _592
REMARK  250  A    between atoms: _592  and  _593
REMARK  251  A    between atoms: _598  and  _599
REMARK  252  A    between atoms: _601  and  _603
REMARK  253  A    between atoms: _603  and  _604
REMARK  254  A    between atoms: _603  and  _606
REMARK  255  A    between atoms: _606  and  _607
REMARK  256  A    between atoms: _610  and  _612
REMARK  257  A    between atoms: _612  and  _613
REMARK  258  A    between atoms: _612  and  _615
REMARK  259  A    between atoms: _615  and  _616
REMARK  260  A    between atoms: _621  and  _623
REMARK  261  A    between atoms: _623  and  _624
REMARK  262  A    between atoms: _623  and  _626
REMARK  263  A    between atoms: _626  and  _627
REMARK  264  A    between atoms: _629  and  _631
REMARK  265  A    between atoms: _631  and  _632
REMARK  266  A    between atoms: _631  and  _634
REMARK  267  A    between atoms: _634  and  _635
REMARK  268  A    between atoms: _635  and  _636
REMARK  269  A    between atoms: _636  and  _637
REMARK  270  A    between atoms: _637  and  _638
REMARK  271  A    between atoms: _642  and  _644
REMARK  272  A    between atoms: _644  and  _645
REMARK  273  A    between atoms: _644  and  _647
REMARK  274  A    between atoms: _647  and  _648
REMARK  275  A    between atoms: _648  and  _649
REMARK  276  A    between atoms: _654  and  _656
REMARK  277  A    between atoms: _656  and  _657
REMARK  278  A    between atoms: _656  and  _659
REMARK  279  A    between atoms: _662  and  _664
REMARK  280  A    between atoms: _664  and  _665
REMARK  281  A    between atoms: _664  and  _667
REMARK  282  A    between atoms: _667  and  _668
REMARK  283  A    between atoms: _674  and  _676
REMARK  284  A    between atoms: _676  and  _677
REMARK  285  A    between atoms: _680  and  _682
REMARK  286  A    between atoms: _682  and  _683
REMARK  287  A    between atoms: _682  and  _685
REMARK  288  A    between atoms: _685  and  _686
REMARK  289  A    between atoms: _689  and  _691
REMARK  290  A    between atoms: _691  and  _692
REMARK  291  A    between atoms: _691  and  _694
REMARK  292  A    between atoms: _694  and  _695
REMARK  293  A    between atoms: _695  and  _696
REMARK  294  A    between atoms: _696  and  _697
REMARK  295  A    between atoms: _706  and  _708
REMARK  296  A    between atoms: _708  and  _709
REMARK  297  A    between atoms: _708  and  _711
REMARK  298  A    between atoms: _711  and  _712
REMARK  299  A    between atoms: _718  and  _720
REMARK  300  A    between atoms: _720  and  _721
REMARK  301  A    between atoms: _720  and  _723
REMARK  302  A    between atoms: _723  and  _724
REMARK  303  A    between atoms: _727  and  _729
REMARK  304  A    between atoms: _729  and  _730
REMARK  305  A    between atoms: _729  and  _732
REMARK  306  A    between atoms: _732  and  _733
REMARK  307  A    between atoms: _738  and  _739
REMARK  308  A    between atoms: _741  and  _743
REMARK  309  A    between atoms: _743  and  _744
REMARK  310  A    between atoms: _747  and  _749
REMARK  311  A    between atoms: _749  and  _750
REMARK  312  A    between atoms: _749  and  _752
REMARK  313  A    between atoms: _752  and  _753
REMARK  314  A    between atoms: _753  and  _754
REMARK  315  A    between atoms: _756  and  _758
REMARK  316  A    between atoms: _758  and  _759
REMARK  317  A    between atoms: _758  and  _761
REMARK  318  A    between atoms: _761  and  _762
REMARK  319  A    between atoms: _767  and  _769
REMARK  320  A    between atoms: _769  and  _770
REMARK  321  A    between atoms: _769  and  _772
REMARK  322  A    between atoms: _772  and  _773
REMARK  323  A    between atoms: _773  and  _774
REMARK  324  A    between atoms: _774  and  _775
REMARK  325  A    between atoms: _784  and  _786
REMARK  326  A    between atoms: _786  and  _787
REMARK  327  A    between atoms: _786  and  _789
REMARK  328  A    between atoms: _789  and  _790
REMARK  329  A    between atoms: _790  and  _791
REMARK  330  A    between atoms: _794  and  _796
REMARK  331  A    between atoms: _796  and  _797
REMARK  332  A    between atoms: _796  and  _799
REMARK  333  A    between atoms: _802  and  _804
REMARK  334  A    between atoms: _804  and  _805
REMARK  335  A    between atoms: _804  and  _807
REMARK  336  A    between atoms: _807  and  _808
REMARK                            x       y       z     vdW  Elec       q    Type
REMARK                         _______ _______ _______ _____ _____    ______ ____
ROOT
ATOM      1  O   HOH     1      24.421  -7.216  -6.241  0.00  0.00    +0.000 OA
ENDROOT
TORSDOF 0
REMARK  Name = ../refined-set-2016/1i5r/1i5r_pocket.pdb
REMARK  336 active torsions:
REMARK  status: ('A' for Active; 'I' for Inactive)
REMARK    1  A    between atoms: _1  and  _3
REMARK    2  A    between atoms: _3  and  _4
REMARK    3  A    between atoms: _3  and  _6
REMARK    4  A    between atoms: _6  and  _7
REMARK    5  A    between atoms: _10  and  _12
REMARK    6  A    between atoms: _12  and  _13
REMARK    7  A    between atoms: _12  and  _15
REMARK    8  A    between atoms: _15  and  _16
REMARK    9  A    between atoms: _19  and  _21
REMARK   10  A    between atoms: _21  and  _22
REMARK   11  A    between atoms: _24  and  _26
REMARK   12  A    between atoms: _26  and  _27
REMARK   13  A    between atoms: _26  and  _29
REMARK   14  A    between atoms: _31  and  _33
REMARK   15  A    between atoms: _33  and  _34
REMARK   16  A    between atoms: _33  and  _36
REMARK   17  A    between atoms: _36  and  _37
REMARK   18  A    between atoms: _39  and  _41
REMARK   19  A    between atoms: _41  and  _42
REMARK   20  A    between atoms: _41  and  _44
REMARK   21  A    between atoms: _44  and  _45
REMARK   22  A    between atoms: _47  and  _49
REMARK   23  A    between atoms: _49  and  _50
REMARK   24  A    between atoms: _52  and  _54
REMARK   25  A    between atoms: _54  and  _55
REMARK   26  A    between atoms: _54  and  _57
REMARK   27  A    between atoms: _57  and  _58
REMARK   28  A    between atoms: _61  and  _63
REMARK   29  A    between atoms: _63  and  _64
REMARK   30  A    between atoms: _66  and  _68
REMARK   31  A    between atoms: _68  and  _69
REMARK   32  A    between atoms: _68  and  _71
REMARK   33  A    between atoms: _71  and  _72
REMARK   34  A    between atoms: _75  and  _77
REMARK   35  A    between atoms: _77  and  _78
REMARK   36  A    between atoms: _77  and  _80
REMARK   37  A    between atoms: _80  and  _81
REMARK   38  A    between atoms: _86  and  _88
REMARK   39  A    between atoms: _88  and  _89
REMARK   40  A    between atoms: _88  and  _91
REMARK   41  A    between atoms: _91  and  _92
REMARK   42  A    between atoms: _95  and  _97
REMARK   43  A    between atoms: _97  and  _98
REMARK   44  A    between atoms: _97  and  _100
REMARK   45  A    between atoms: _100  and  _101
REMARK   46  A    between atoms: _104  and  _106
REMARK   47  A    between atoms: _106  and  _107
REMARK   48  A    between atoms: _106  and  _109
REMARK   49  A    between atoms: _109  and  _110
REMARK   50  A    between atoms: _110  and  _111
REMARK   51  A    between atoms: _111  and  _112
REMARK   52  A    between atoms: _121  and  _123
REMARK   53  A    between atoms: _123  and  _124
REMARK   54  A    between atoms: _123  and  _126
REMARK   55  A    between atoms: _126  and  _127
REMARK   56  A    between atoms: _130  and  _132
REMARK   57  A    between atoms: _132  and  _133
REMARK   58  A    between atoms: _132  and  _135
REMARK   59  A    between atoms: _135  and  _136
REMARK   60  A    between atoms: _139  and  _141
REMARK   61  A    between atoms: _141  and  _142
REMARK   62  A    between atoms: _141  and  _144
REMARK   63  A    between atoms: _144  and  _145
REMARK   64  A    between atoms: _145  and  _146
REMARK   65  A    between atoms: _146  and  _147
REMARK   66  A    between atoms: _156  and  _158
REMARK   67  A    between atoms: _158  and  _159
REMARK   68  A    between atoms: _158  and  _161
REMARK   69  A    between atoms: _161  and  _162
REMARK   70  A    between atoms: _165  and  _167
REMARK   71  A    between atoms: _167  and  _168
REMARK   72  A    between atoms: _167  and  _170
REMARK   73  A    between atoms: _170  and  _171
REMARK   74  A    between atoms: _171  and  _172
REMARK   75  A    between atoms: _177  and  _179
REMARK   76  A    between atoms: _179  and  _180
REMARK   77  A    between atoms: _179  and  _182
REMARK   78  A    between atoms: _182  and  _183
REMARK   79  A    between atoms: _186  and  _188
REMARK   80  A    between atoms: _188  and  _189
REMARK   81  A    between atoms: _188  and  _191
REMARK   82  A    between atoms: _191  and  _192
REMARK   83  A    between atoms: _195  and  _197
REMARK   84  A    between atoms: _197  and  _198
REMARK   85  A    between atoms: _197  and  _200
REMARK   86  A    between atoms: _203  and  _205
REMARK   87  A    between atoms: _205  and  _206
REMARK   88  A    between atoms: _205  and  _208
REMARK   89  A    between atoms: _208  and  _209
REMARK   90  A    between atoms: _209  and  _210
REMARK   91  A    between atoms: _210  and  _211
REMARK   92  A    between atoms: _220  and  _222
REMARK   93  A    between atoms: _222  and  _223
REMARK   94  A    between atoms: _222  and  _225
REMARK   95  A    between atoms: _225  and  _226
REMARK   96  A    between atoms: _229  and  _231
REMARK   97  A    between atoms: _231  and  _232
REMARK   98  A    between atoms: _231  and  _234
REMARK   99  A    between atoms: _234  and  _235
REMARK  100  A    between atoms: _237  and  _239
REMARK  101  A    between atoms: _239  and  _240
REMARK  102  A    between atoms: _239  and  _242
REMARK  103  A    between atoms: _245  and  _247
REMARK  104  A    between atoms: _247  and  _248
REMARK  105  A    between atoms: _247  and  _250
REMARK  106  A    between atoms: _252  and  _254
REMARK  107  A    between atoms: _254  and  _255
REMARK  108  A    between atoms: _254  and  _257
REMARK  109  A    between atoms: _257  and  _258
REMARK  110  A    between atoms: _263  and  _265
REMARK  111  A    between atoms: _265  and  _266
REMARK  112  A    between atoms: _269  and  _271
REMARK  113  A    between atoms: _271  and  _272
REMARK  114  A    between atoms: _274  and  _276
REMARK  115  A    between atoms: _276  and  _277
REMARK  116  A    between atoms: _276  and  _279
REMARK  117  A    between atoms: _279  and  _280
REMARK  118  A    between atoms: _283  and  _285
REMARK  119  A    between atoms: _285  and  _286
REMARK  120  A    between atoms: _288  and  _290
REMARK  121  A    between atoms: _290  and  _291
REMARK  122  A    between atoms: _290  and  _293
REMARK  123  A    between atoms: _293  and  _294
REMARK  124  A    between atoms: _297  and  _299
REMARK  125  A    between atoms: _299  and  _300
REMARK  126  A    between atoms: _299  and  _302
REMARK  127  A    between atoms: _302  and  _303
REMARK  128  A    between atoms: _306  and  _308
REMARK  129  A    between atoms: _308  and  _309
REMARK  130  A    between atoms: _308  and  _311
REMARK  131  A    between atoms: _311  and  _312
REMARK  132  A    between atoms: _314  and  _316
REMARK  133  A    between atoms: _316  and  _317
REMARK  134  A    between atoms: _316  and  _319
REMARK  135  A    between atoms: _319  and  _320
REMARK  136  A    between atoms: _323  and  _325
REMARK  137  A    between atoms: _325  and  _326
REMARK  138  A    between atoms: _325  and  _328
REMARK  139  A    between atoms: _331  and  _333
REMARK  140  A    between atoms: _333  and  _334
REMARK  141  A    between atoms: _333  and  _336
REMARK  142  A    between atoms: _336  and  _337
REMARK  143  A    between atoms: _342  and  _344
REMARK  144  A    between atoms: _344  and  _345
REMARK  145  A    between atoms: _347  and  _349
REMARK  146  A    between atoms: _349  and  _350
REMARK  147  A    between atoms: _349  and  _352
REMARK  148  A    between atoms: _352  and  _353
REMARK  149  A    between atoms: _353  and  _354
REMARK  150  A    between atoms: _354  and  _355
REMARK  151  A    between atoms: _364  and  _366
REMARK  152  A    between atoms: _366  and  _367
REMARK  153  A    between atoms: _366  and  _369
REMARK  154  A    between atoms: _369  and  _370
REMARK  155  A    between atoms: _370  and  _371
REMARK  156  A    between atoms: _373  and  _375
REMARK  157  A    between atoms: _375  and  _376
REMARK  158  A    between atoms: _375  and  _378
REMARK  159  A    between atoms: _378  and  _379
REMARK  160  A    between atoms: _382  and  _384
REMARK  161  A    between atoms: _384  and  _385
REMARK  162  A    between atoms: _387  and  _389
REMARK  163  A    between atoms: _389  and  _390
REMARK  164  A    between atoms: _389  and  _392
REMARK  165  A    between atoms: _392  and  _393
REMARK  166  A    between atoms: _395  and  _397
REMARK  167  A    between atoms: _397  and  _398
REMARK  168  A    between atoms: _397  and  _400
REMARK  169  A    between atoms: _403  and  _405
REMARK  170  A    between atoms: _405  and  _406
REMARK  171  A    between atoms: _408  and  _410
REMARK  172  A    between atoms: _410  and  _411
REMARK  173  A    between atoms: _413  and  _415
REMARK  174  A    between atoms: _415  and  _416
REMARK  175  A    between atoms: _415  and  _418
REMARK  176  A    between atoms: _418  and  _419
REMARK  177  A    between atoms: _422  and  _424
REMARK  178  A    between atoms: _424  and  _425
REMARK  179  A    between atoms: _424  and  _427
REMARK  180  A    between atoms: _427  and  _428
REMARK  181  A    between atoms: _428  and  _429
REMARK  182  A    between atoms: _431  and  _433
REMARK  183  A    between atoms: _433  and  _434
REMARK  184  A    between atoms: _436  and  _438
REMARK  185  A    between atoms: _438  and  _439
REMARK  186  A    between atoms: _438  and  _441
REMARK  187  A    between atoms: _441  and  _442
REMARK  188  A    between atoms: _446  and  _447
REMARK  189  A    between atoms: _452  and  _454
REMARK  190  A    between atoms: _454  and  _455
REMARK  191  A    between atoms: _454  and  _457
REMARK  192  A    between atoms: _457  and  _458
REMARK  193  A    between atoms: _463  and  _465
REMARK  194  A    between atoms: _465  and  _466
REMARK  195  A    between atoms: _465  and  _468
REMARK  196  A    between atoms: _468  and  _469
REMARK  197  A    between atoms: _474  and  _475
REMARK  198  A    between atoms: _477  and  _479
REMARK  199  A    between atoms: _479  and  _480
REMARK  200  A    between atoms: _479  and  _482
REMARK  201  A    between atoms: _484  and  _486
REMARK  202  A    between atoms: _486  and  _487
REMARK  203  A    between atoms: _486  and  _489
REMARK  204  A    between atoms: _489  and  _490
REMARK  205  A    between atoms: _490  and  _491
REMARK  206  A    between atoms: _491  and  _492
REMARK  207  A    between atoms: _492  and  _493
REMARK  208  A    between atoms: _497  and  _499
REMARK  209  A    between atoms: _499  and  _500
REMARK  210  A    between atoms: _499  and  _502
REMARK  211  A    between atoms: _502  and  _503
REMARK  212  A    between atoms: _503  and  _504
REMARK  213  A    between atoms: _507  and  _509
REMARK  214  A    between atoms: _509  and  _510
REMARK  215  A    between atoms: _509  and  _512
REMARK  216  A    between atoms: _514  and  _516
REMARK  217  A    between atoms: _516  and  _517
REMARK  218  A    between atoms: _520  and  _521
REMARK  219  A    between atoms: _526  and  _528
REMARK  220  A    between atoms: _528  and  _529
REMARK  221  A    between atoms: _528  and  _531
REMARK  222  A    between atoms: _534  and  _536
REMARK  223  A    between atoms: _536  and  _537
REMARK  224  A    between atoms: _536  and  _539
REMARK  225  A    between atoms: _539  and  _540
REMARK  226  A    between atoms: _543  and  _545
REMARK  227  A    between atoms: _545  and  _546
REMARK  228  A    between atoms: _545  and  _548
REMARK  229  A    between atoms: _548  and  _549
REMARK  230  A    between atoms: _555  and  _557
REMARK  231  A    between atoms: _557  and  _558
REMARK  232  A    between atoms: _557  and  _560
REMARK  233  A    between atoms: _560  and  _561
REMARK  234  A    between atoms: _561  and  _562
REMARK  235  A    between atoms: _564  and  _566
REMARK  236  A    between atoms: _566  and  _567
REMARK  237  A    between atoms: _566  and  _569
REMARK  238  A    between atoms: _569  and  _570
REMARK  239  A    between atoms: _570  and  _571
REMARK  240  A    between atoms: _574  and  _576
REMARK  241  A    between atoms: _576  and  _577
REMARK  242  A    between atoms: _576  and  _579
REMARK  243  A    between atoms: _579  and  _580
REMARK  244  A    between atoms: _580  and  _581
REMARK  245  A    between atoms: _581  and  _582
REMARK  246  A    between atoms: _582  and  _583
REMARK  247  A    between atoms: _587  and  _589
REMARK  248  A    between atoms: _589  and  _590
REMARK  249  A    between atoms: _589  and  _592
REMARK  250  A    between atoms: _592  and  _593
REMARK  251  A    between atoms: _598  and  _599
REMARK  252  A    between atoms: _601  and  _603
REMARK  253  A    between atoms: _603  and  _604
REMARK  254  A    between atoms: _603  and  _606
REMARK  255  A    between atoms: _606  and  _607
REMARK  256  A    between atoms: _610  and  _612
REMARK  257  A    between atoms: _612  and  _613
REMARK  258  A    between atoms: _612  and  _615
REMARK  259  A    between atoms: _615  and  _616
REMARK  260  A    between atoms: _621  and  _623
REMARK  261  A    between atoms: _623  and  _624
REMARK  262  A    between atoms: _623  and  _626
REMARK  263  A    between atoms: _626  and  _627
REMARK  264  A    between atoms: _629  and  _631
REMARK  265  A    between atoms: _631  and  _632
REMARK  266  A    between atoms: _631  and  _634
REMARK  267  A    between atoms: _634  and  _635
REMARK  268  A    between atoms: _635  and  _636
REMARK  269  A    between atoms: _636  and  _637
REMARK  270  A    between atoms: _637  and  _638
REMARK  271  A    between atoms: _642  and  _644
REMARK  272  A    between atoms: _644  and  _645
REMARK  273  A    between atoms: _644  and  _647
REMARK  274  A    between atoms: _647  and  _648
REMARK  275  A    between atoms: _648  and  _649
REMARK  276  A    between atoms: _654  and  _656
REMARK  277  A    between atoms: _656  and  _657
REMARK  278  A    between atoms: _656  and  _659
REMARK  279  A    between atoms: _662  and  _664
REMARK  280  A    between atoms: _664  and  _665
REMARK  281  A    between atoms: _664  and  _667
REMARK  282  A    between atoms: _667  and  _668
REMARK  283  A    between atoms: _674  and  _676
REMARK  284  A    between atoms: _676  and  _677
REMARK  285  A    between atoms: _680  and  _682
REMARK  286  A    between atoms: _682  and  _683
REMARK  287  A    between atoms: _682  and  _685
REMARK  288  A    between atoms: _685  and  _686
REMARK  289  A    between atoms: _689  and  _691
REMARK  290  A    between atoms: _691  and  _692
REMARK  291  A    between atoms: _691  and  _694
REMARK  292  A    between atoms: _694  and  _695
REMARK  293  A    between atoms: _695  and  _696
REMARK  294  A    between atoms: _696  and  _697
REMARK  295  A    between atoms: _706  and  _708
REMARK  296  A    between atoms: _708  and  _709
REMARK  297  A    between atoms: _708  and  _711
REMARK  298  A    between atoms: _711  and  _712
REMARK  299  A    between atoms: _718  and  _720
REMARK  300  A    between atoms: _720  and  _721
REMARK  301  A    between atoms: _720  and  _723
REMARK  302  A    between atoms: _723  and  _724
REMARK  303  A    between atoms: _727  and  _729
REMARK  304  A    between atoms: _729  and  _730
REMARK  305  A    between atoms: _729  and  _732
REMARK  306  A    between atoms: _732  and  _733
REMARK  307  A    between atoms: _738  and  _739
REMARK  308  A    between atoms: _741  and  _743
REMARK  309  A    between atoms: _743  and  _744
REMARK  310  A    between atoms: _747  and  _749
REMARK  311  A    between atoms: _749  and  _750
REMARK  312  A    between atoms: _749  and  _752
REMARK  313  A    between atoms: _752  and  _753
REMARK  314  A    between atoms: _753  and  _754
REMARK  315  A    between atoms: _756  and  _758
REMARK  316  A    between atoms: _758  and  _759
REMARK  317  A    between atoms: _758  and  _761
REMARK  318  A    between atoms: _761  and  _762
REMARK  319  A    between atoms: _767  and  _769
REMARK  320  A    between atoms: _769  and  _770
REMARK  321  A    between atoms: _769  and  _772
REMARK  322  A    between atoms: _772  and  _773
REMARK  323  A    between atoms: _773  and  _774
REMARK  324  A    between atoms: _774  and  _775
REMARK  325  A    between atoms: _784  and  _786
REMARK  326  A    between atoms: _786  and  _787
REMARK  327  A    between atoms: _786  and  _789
REMARK  328  A    between atoms: _789  and  _790
REMARK  329  A    between atoms: _790  and  _791
REMARK  330  A    between atoms: _794  and  _796
REMARK  331  A    between atoms: _796  and  _797
REMARK  332  A    between atoms: _796  and  _799
REMARK  333  A    between atoms: _802  and  _804
REMARK  334  A    between atoms: _804  and  _805
REMARK  335  A    between atoms: _804  and  _807
REMARK  336  A    between atoms: _807  and  _808
REMARK                            x       y       z     vdW  Elec       q    Type
REMARK                         _______ _______ _______ _____ _____    ______ ____
ROOT
ATOM      1  O   HOH     1      15.115 -16.461  -1.330  0.00  0.00    +0.000 OA
ENDROOT
TORSDOF 0
REMARK  Name = ../refined-set-2016/1i5r/1i5r_pocket.pdb
REMARK  336 active torsions:
REMARK  status: ('A' for Active; 'I' for Inactive)
REMARK    1  A    between atoms: _1  and  _3
REMARK    2  A    between atoms: _3  and  _4
REMARK    3  A    between atoms: _3  and  _6
REMARK    4  A    between atoms: _6  and  _7
REMARK    5  A    between atoms: _10  and  _12
REMARK    6  A    between atoms: _12  and  _13
REMARK    7  A    between atoms: _12  and  _15
REMARK    8  A    between atoms: _15  and  _16
REMARK    9  A    between atoms: _19  and  _21
REMARK   10  A    between atoms: _21  and  _22
REMARK   11  A    between atoms: _24  and  _26
REMARK   12  A    between atoms: _26  and  _27
REMARK   13  A    between atoms: _26  and  _29
REMARK   14  A    between atoms: _31  and  _33
REMARK   15  A    between atoms: _33  and  _34
REMARK   16  A    between atoms: _33  and  _36
REMARK   17  A    between atoms: _36  and  _37
REMARK   18  A    between atoms: _39  and  _41
REMARK   19  A    between atoms: _41  and  _42
REMARK   20  A    between atoms: _41  and  _44
REMARK   21  A    between atoms: _44  and  _45
REMARK   22  A    between atoms: _47  and  _49
REMARK   23  A    between atoms: _49  and  _50
REMARK   24  A    between atoms: _52  and  _54
REMARK   25  A    between atoms: _54  and  _55
REMARK   26  A    between atoms: _54  and  _57
REMARK   27  A    between atoms: _57  and  _58
REMARK   28  A    between atoms: _61  and  _63
REMARK   29  A    between atoms: _63  and  _64
REMARK   30  A    between atoms: _66  and  _68
REMARK   31  A    between atoms: _68  and  _69
REMARK   32  A    between atoms: _68  and  _71
REMARK   33  A    between atoms: _71  and  _72
REMARK   34  A    between atoms: _75  and  _77
REMARK   35  A    between atoms: _77  and  _78
REMARK   36  A    between atoms: _77  and  _80
REMARK   37  A    between atoms: _80  and  _81
REMARK   38  A    between atoms: _86  and  _88
REMARK   39  A    between atoms: _88  and  _89
REMARK   40  A    between atoms: _88  and  _91
REMARK   41  A    between atoms: _91  and  _92
REMARK   42  A    between atoms: _95  and  _97
REMARK   43  A    between atoms: _97  and  _98
REMARK   44  A    between atoms: _97  and  _100
REMARK   45  A    between atoms: _100  and  _101
REMARK   46  A    between atoms: _104  and  _106
REMARK   47  A    between atoms: _106  and  _107
REMARK   48  A    between atoms: _106  and  _109
REMARK   49  A    between atoms: _109  and  _110
REMARK   50  A    between atoms: _110  and  _111
REMARK   51  A    between atoms: _111  and  _112
REMARK   52  A    between atoms: _121  and  _123
REMARK   53  A    between atoms: _123  and  _124
REMARK   54  A    between atoms: _123  and  _126
REMARK   55  A    between atoms: _126  and  _127
REMARK   56  A    between atoms: _130  and  _132
REMARK   57  A    between atoms: _132  and  _133
REMARK   58  A    between atoms: _132  and  _135
REMARK   59  A    between atoms: _135  and  _136
REMARK   60  A    between atoms: _139  and  _141
REMARK   61  A    between atoms: _141  and  _142
REMARK   62  A    between atoms: _141  and  _144
REMARK   63  A    between atoms: _144  and  _145
REMARK   64  A    between atoms: _145  and  _146
REMARK   65  A    between atoms: _146  and  _147
REMARK   66  A    between atoms: _156  and  _158
REMARK   67  A    between atoms: _158  and  _159
REMARK   68  A    between atoms: _158  and  _161
REMARK   69  A    between atoms: _161  and  _162
REMARK   70  A    between atoms: _165  and  _167
REMARK   71  A    between atoms: _167  and  _168
REMARK   72  A    between atoms: _167  and  _170
REMARK   73  A    between atoms: _170  and  _171
REMARK   74  A    between atoms: _171  and  _172
REMARK   75  A    between atoms: _177  and  _179
REMARK   76  A    between atoms: _179  and  _180
REMARK   77  A    between atoms: _179  and  _182
REMARK   78  A    between atoms: _182  and  _183
REMARK   79  A    between atoms: _186  and  _188
REMARK   80  A    between atoms: _188  and  _189
REMARK   81  A    between atoms: _188  and  _191
REMARK   82  A    between atoms: _191  and  _192
REMARK   83  A    between atoms: _195  and  _197
REMARK   84  A    between atoms: _197  and  _198
REMARK   85  A    between atoms: _197  and  _200
REMARK   86  A    between atoms: _203  and  _205
REMARK   87  A    between atoms: _205  and  _206
REMARK   88  A    between atoms: _205  and  _208
REMARK   89  A    between atoms: _208  and  _209
REMARK   90  A    between atoms: _209  and  _210
REMARK   91  A    between atoms: _210  and  _211
REMARK   92  A    between atoms: _220  and  _222
REMARK   93  A    between atoms: _222  and  _223
REMARK   94  A    between atoms: _222  and  _225
REMARK   95  A    between atoms: _225  and  _226
REMARK   96  A    between atoms: _229  and  _231
REMARK   97  A    between atoms: _231  and  _232
REMARK   98  A    between atoms: _231  and  _234
REMARK   99  A    between atoms: _234  and  _235
REMARK  100  A    between atoms: _237  and  _239
REMARK  101  A    between atoms: _239  and  _240
REMARK  102  A    between atoms: _239  and  _242
REMARK  103  A    between atoms: _245  and  _247
REMARK  104  A    between atoms: _247  and  _248
REMARK  105  A    between atoms: _247  and  _250
REMARK  106  A    between atoms: _252  and  _254
REMARK  107  A    between atoms: _254  and  _255
REMARK  108  A    between atoms: _254  and  _257
REMARK  109  A    between atoms: _257  and  _258
REMARK  110  A    between atoms: _263  and  _265
REMARK  111  A    between atoms: _265  and  _266
REMARK  112  A    between atoms: _269  and  _271
REMARK  113  A    between atoms: _271  and  _272
REMARK  114  A    between atoms: _274  and  _276
REMARK  115  A    between atoms: _276  and  _277
REMARK  116  A    between atoms: _276  and  _279
REMARK  117  A    between atoms: _279  and  _280
REMARK  118  A    between atoms: _283  and  _285
REMARK  119  A    between atoms: _285  and  _286
REMARK  120  A    between atoms: _288  and  _290
REMARK  121  A    between atoms: _290  and  _291
REMARK  122  A    between atoms: _290  and  _293
REMARK  123  A    between atoms: _293  and  _294
REMARK  124  A    between atoms: _297  and  _299
REMARK  125  A    between atoms: _299  and  _300
REMARK  126  A    between atoms: _299  and  _302
REMARK  127  A    between atoms: _302  and  _303
REMARK  128  A    between atoms: _306  and  _308
REMARK  129  A    between atoms: _308  and  _309
REMARK  130  A    between atoms: _308  and  _311
REMARK  131  A    between atoms: _311  and  _312
REMARK  132  A    between atoms: _314  and  _316
REMARK  133  A    between atoms: _316  and  _317
REMARK  134  A    between atoms: _316  and  _319
REMARK  135  A    between atoms: _319  and  _320
REMARK  136  A    between atoms: _323  and  _325
REMARK  137  A    between atoms: _325  and  _326
REMARK  138  A    between atoms: _325  and  _328
REMARK  139  A    between atoms: _331  and  _333
REMARK  140  A    between atoms: _333  and  _334
REMARK  141  A    between atoms: _333  and  _336
REMARK  142  A    between atoms: _336  and  _337
REMARK  143  A    between atoms: _342  and  _344
REMARK  144  A    between atoms: _344  and  _345
REMARK  145  A    between atoms: _347  and  _349
REMARK  146  A    between atoms: _349  and  _350
REMARK  147  A    between atoms: _349  and  _352
REMARK  148  A    between atoms: _352  and  _353
REMARK  149  A    between atoms: _353  and  _354
REMARK  150  A    between atoms: _354  and  _355
REMARK  151  A    between atoms: _364  and  _366
REMARK  152  A    between atoms: _366  and  _367
REMARK  153  A    between atoms: _366  and  _369
REMARK  154  A    between atoms: _369  and  _370
REMARK  155  A    between atoms: _370  and  _371
REMARK  156  A    between atoms: _373  and  _375
REMARK  157  A    between atoms: _375  and  _376
REMARK  158  A    between atoms: _375  and  _378
REMARK  159  A    between atoms: _378  and  _379
REMARK  160  A    between atoms: _382  and  _384
REMARK  161  A    between atoms: _384  and  _385
REMARK  162  A    between atoms: _387  and  _389
REMARK  163  A    between atoms: _389  and  _390
REMARK  164  A    between atoms: _389  and  _392
REMARK  165  A    between atoms: _392  and  _393
REMARK  166  A    between atoms: _395  and  _397
REMARK  167  A    between atoms: _397  and  _398
REMARK  168  A    between atoms: _397  and  _400
REMARK  169  A    between atoms: _403  and  _405
REMARK  170  A    between atoms: _405  and  _406
REMARK  171  A    between atoms: _408  and  _410
REMARK  172  A    between atoms: _410  and  _411
REMARK  173  A    between atoms: _413  and  _415
REMARK  174  A    between atoms: _415  and  _416
REMARK  175  A    between atoms: _415  and  _418
REMARK  176  A    between atoms: _418  and  _419
REMARK  177  A    between atoms: _422  and  _424
REMARK  178  A    between atoms: _424  and  _425
REMARK  179  A    between atoms: _424  and  _427
REMARK  180  A    between atoms: _427  and  _428
REMARK  181  A    between atoms: _428  and  _429
REMARK  182  A    between atoms: _431  and  _433
REMARK  183  A    between atoms: _433  and  _434
REMARK  184  A    between atoms: _436  and  _438
REMARK  185  A    between atoms: _438  and  _439
REMARK  186  A    between atoms: _438  and  _441
REMARK  187  A    between atoms: _441  and  _442
REMARK  188  A    between atoms: _446  and  _447
REMARK  189  A    between atoms: _452  and  _454
REMARK  190  A    between atoms: _454  and  _455
REMARK  191  A    between atoms: _454  and  _457
REMARK  192  A    between atoms: _457  and  _458
REMARK  193  A    between atoms: _463  and  _465
REMARK  194  A    between atoms: _465  and  _466
REMARK  195  A    between atoms: _465  and  _468
REMARK  196  A    between atoms: _468  and  _469
REMARK  197  A    between atoms: _474  and  _475
REMARK  198  A    between atoms: _477  and  _479
REMARK  199  A    between atoms: _479  and  _480
REMARK  200  A    between atoms: _479  and  _482
REMARK  201  A    between atoms: _484  and  _486
REMARK  202  A    between atoms: _486  and  _487
REMARK  203  A    between atoms: _486  and  _489
REMARK  204  A    between atoms: _489  and  _490
REMARK  205  A    between atoms: _490  and  _491
REMARK  206  A    between atoms: _491  and  _492
REMARK  207  A    between atoms: _492  and  _493
REMARK  208  A    between atoms: _497  and  _499
REMARK  209  A    between atoms: _499  and  _500
REMARK  210  A    between atoms: _499  and  _502
REMARK  211  A    between atoms: _502  and  _503
REMARK  212  A    between atoms: _503  and  _504
REMARK  213  A    between atoms: _507  and  _509
REMARK  214  A    between atoms: _509  and  _510
REMARK  215  A    between atoms: _509  and  _512
REMARK  216  A    between atoms: _514  and  _516
REMARK  217  A    between atoms: _516  and  _517
REMARK  218  A    between atoms: _520  and  _521
REMARK  219  A    between atoms: _526  and  _528
REMARK  220  A    between atoms: _528  and  _529
REMARK  221  A    between atoms: _528  and  _531
REMARK  222  A    between atoms: _534  and  _536
REMARK  223  A    between atoms: _536  and  _537
REMARK  224  A    between atoms: _536  and  _539
REMARK  225  A    between atoms: _539  and  _540
REMARK  226  A    between atoms: _543  and  _545
REMARK  227  A    between atoms: _545  and  _546
REMARK  228  A    between atoms: _545  and  _548
REMARK  229  A    between atoms: _548  and  _549
REMARK  230  A    between atoms: _555  and  _557
REMARK  231  A    between atoms: _557  and  _558
REMARK  232  A    between atoms: _557  and  _560
REMARK  233  A    between atoms: _560  and  _561
REMARK  234  A    between atoms: _561  and  _562
REMARK  235  A    between atoms: _564  and  _566
REMARK  236  A    between atoms: _566  and  _567
REMARK  237  A    between atoms: _566  and  _569
REMARK  238  A    between atoms: _569  and  _570
REMARK  239  A    between atoms: _570  and  _571
REMARK  240  A    between atoms: _574  and  _576
REMARK  241  A    between atoms: _576  and  _577
REMARK  242  A    between atoms: _576  and  _579
REMARK  243  A    between atoms: _579  and  _580
REMARK  244  A    between atoms: _580  and  _581
REMARK  245  A    between atoms: _581  and  _582
REMARK  246  A    between atoms: _582  and  _583
REMARK  247  A    between atoms: _587  and  _589
REMARK  248  A    between atoms: _589  and  _590
REMARK  249  A    between atoms: _589  and  _592
REMARK  250  A    between atoms: _592  and  _593
REMARK  251  A    between atoms: _598  and  _599
REMARK  252  A    between atoms: _601  and  _603
REMARK  253  A    between atoms: _603  and  _604
REMARK  254  A    between atoms: _603  and  _606
REMARK  255  A    between atoms: _606  and  _607
REMARK  256  A    between atoms: _610  and  _612
REMARK  257  A    between atoms: _612  and  _613
REMARK  258  A    between atoms: _612  and  _615
REMARK  259  A    between atoms: _615  and  _616
REMARK  260  A    between atoms: _621  and  _623
REMARK  261  A    between atoms: _623  and  _624
REMARK  262  A    between atoms: _623  and  _626
REMARK  263  A    between atoms: _626  and  _627
REMARK  264  A    between atoms: _629  and  _631
REMARK  265  A    between atoms: _631  and  _632
REMARK  266  A    between atoms: _631  and  _634
REMARK  267  A    between atoms: _634  and  _635
REMARK  268  A    between atoms: _635  and  _636
REMARK  269  A    between atoms: _636  and  _637
REMARK  270  A    between atoms: _637  and  _638
REMARK  271  A    between atoms: _642  and  _644
REMARK  272  A    between atoms: _644  and  _645
REMARK  273  A    between atoms: _644  and  _647
REMARK  274  A    between atoms: _647  and  _648
REMARK  275  A    between atoms: _648  and  _649
REMARK  276  A    between atoms: _654  and  _656
REMARK  277  A    between atoms: _656  and  _657
REMARK  278  A    between atoms: _656  and  _659
REMARK  279  A    between atoms: _662  and  _664
REMARK  280  A    between atoms: _664  and  _665
REMARK  281  A    between atoms: _664  and  _667
REMARK  282  A    between atoms: _667  and  _668
REMARK  283  A    between atoms: _674  and  _676
REMARK  284  A    between atoms: _676  and  _677
REMARK  285  A    between atoms: _680  and  _682
REMARK  286  A    between atoms: _682  and  _683
REMARK  287  A    between atoms: _682  and  _685
REMARK  288  A    between atoms: _685  and  _686
REMARK  289  A    between atoms: _689  and  _691
REMARK  290  A    between atoms: _691  and  _692
REMARK  291  A    between atoms: _691  and  _694
REMARK  292  A    between atoms: _694  and  _695
REMARK  293  A    between atoms: _695  and  _696
REMARK  294  A    between atoms: _696  and  _697
REMARK  295  A    between atoms: _706  and  _708
REMARK  296  A    between atoms: _708  and  _709
REMARK  297  A    between atoms: _708  and  _711
REMARK  298  A    between atoms: _711  and  _712
REMARK  299  A    between atoms: _718  and  _720
REMARK  300  A    between atoms: _720  and  _721
REMARK  301  A    between atoms: _720  and  _723
REMARK  302  A    between atoms: _723  and  _724
REMARK  303  A    between atoms: _727  and  _729
REMARK  304  A    between atoms: _729  and  _730
REMARK  305  A    between atoms: _729  and  _732
REMARK  306  A    between atoms: _732  and  _733
REMARK  307  A    between atoms: _738  and  _739
REMARK  308  A    between atoms: _741  and  _743
REMARK  309  A    between atoms: _743  and  _744
REMARK  310  A    between atoms: _747  and  _749
REMARK  311  A    between atoms: _749  and  _750
REMARK  312  A    between atoms: _749  and  _752
REMARK  313  A    between atoms: _752  and  _753
REMARK  314  A    between atoms: _753  and  _754
REMARK  315  A    between atoms: _756  and  _758
REMARK  316  A    between atoms: _758  and  _759
REMARK  317  A    between atoms: _758  and  _761
REMARK  318  A    between atoms: _761  and  _762
REMARK  319  A    between atoms: _767  and  _769
REMARK  320  A    between atoms: _769  and  _770
REMARK  321  A    between atoms: _769  and  _772
REMARK  322  A    between atoms: _772  and  _773
REMARK  323  A    between atoms: _773  and  _774
REMARK  324  A    between atoms: _774  and  _775
REMARK  325  A    between atoms: _784  and  _786
REMARK  326  A    between atoms: _786  and  _787
REMARK  327  A    between atoms: _786  and  _789
REMARK  328  A    between atoms: _789  and  _790
REMARK  329  A    between atoms: _790  and  _791
REMARK  330  A    between atoms: _794  and  _796
REMARK  331  A    between atoms: _796  and  _797
REMARK  332  A    between atoms: _796  and  _799
REMARK  333  A    between atoms: _802  and  _804
REMARK  334  A    between atoms: _804  and  _805
REMARK  335  A    between atoms: _804  and  _807
REMARK  336  A    between atoms: _807  and  _808
REMARK                            x       y       z     vdW  Elec       q    Type
REMARK                         _______ _______ _______ _____ _____    ______ ____
ROOT
ATOM      1  O   HOH     1      10.790   3.807 -14.415  0.00  0.00    +0.000 OA
ENDROOT
TORSDOF 0
REMARK  Name = ../refined-set-2016/1i5r/1i5r_pocket.pdb
REMARK  336 active torsions:
REMARK  status: ('A' for Active; 'I' for Inactive)
REMARK    1  A    between atoms: _1  and  _3
REMARK    2  A    between atoms: _3  and  _4
REMARK    3  A    between atoms: _3  and  _6
REMARK    4  A    between atoms: _6  and  _7
REMARK    5  A    between atoms: _10  and  _12
REMARK    6  A    between atoms: _12  and  _13
REMARK    7  A    between atoms: _12  and  _15
REMARK    8  A    between atoms: _15  and  _16
REMARK    9  A    between atoms: _19  and  _21
REMARK   10  A    between atoms: _21  and  _22
REMARK   11  A    between atoms: _24  and  _26
REMARK   12  A    between atoms: _26  and  _27
REMARK   13  A    between atoms: _26  and  _29
REMARK   14  A    between atoms: _31  and  _33
REMARK   15  A    between atoms: _33  and  _34
REMARK   16  A    between atoms: _33  and  _36
REMARK   17  A    between atoms: _36  and  _37
REMARK   18  A    between atoms: _39  and  _41
REMARK   19  A    between atoms: _41  and  _42
REMARK   20  A    between atoms: _41  and  _44
REMARK   21  A    between atoms: _44  and  _45
REMARK   22  A    between atoms: _47  and  _49
REMARK   23  A    between atoms: _49  and  _50
REMARK   24  A    between atoms: _52  and  _54
REMARK   25  A    between atoms: _54  and  _55
REMARK   26  A    between atoms: _54  and  _57
REMARK   27  A    between atoms: _57  and  _58
REMARK   28  A    between atoms: _61  and  _63
REMARK   29  A    between atoms: _63  and  _64
REMARK   30  A    between atoms: _66  and  _68
REMARK   31  A    between atoms: _68  and  _69
REMARK   32  A    between atoms: _68  and  _71
REMARK   33  A    between atoms: _71  and  _72
REMARK   34  A    between atoms: _75  and  _77
REMARK   35  A    between atoms: _77  and  _78
REMARK   36  A    between atoms: _77  and  _80
REMARK   37  A    between atoms: _80  and  _81
REMARK   38  A    between atoms: _86  and  _88
REMARK   39  A    between atoms: _88  and  _89
REMARK   40  A    between atoms: _88  and  _91
REMARK   41  A    between atoms: _91  and  _92
REMARK   42  A    between atoms: _95  and  _97
REMARK   43  A    between atoms: _97  and  _98
REMARK   44  A    between atoms: _97  and  _100
REMARK   45  A    between atoms: _100  and  _101
REMARK   46  A    between atoms: _104  and  _106
REMARK   47  A    between atoms: _106  and  _107
REMARK   48  A    between atoms: _106  and  _109
REMARK   49  A    between atoms: _109  and  _110
REMARK   50  A    between atoms: _110  and  _111
REMARK   51  A    between atoms: _111  and  _112
REMARK   52  A    between atoms: _121  and  _123
REMARK   53  A    between atoms: _123  and  _124
REMARK   54  A    between atoms: _123  and  _126
REMARK   55  A    between atoms: _126  and  _127
REMARK   56  A    between atoms: _130  and  _132
REMARK   57  A    between atoms: _132  and  _133
REMARK   58  A    between atoms: _132  and  _135
REMARK   59  A    between atoms: _135  and  _136
REMARK   60  A    between atoms: _139  and  _141
REMARK   61  A    between atoms: _141  and  _142
REMARK   62  A    between atoms: _141  and  _144
REMARK   63  A    between atoms: _144  and  _145
REMARK   64  A    between atoms: _145  and  _146
REMARK   65  A    between atoms: _146  and  _147
REMARK   66  A    between atoms: _156  and  _158
REMARK   67  A    between atoms: _158  and  _159
REMARK   68  A    between atoms: _158  and  _161
REMARK   69  A    between atoms: _161  and  _162
REMARK   70  A    between atoms: _165  and  _167
REMARK   71  A    between atoms: _167  and  _168
REMARK   72  A    between atoms: _167  and  _170
REMARK   73  A    between atoms: _170  and  _171
REMARK   74  A    between atoms: _171  and  _172
REMARK   75  A    between atoms: _177  and  _179
REMARK   76  A    between atoms: _179  and  _180
REMARK   77  A    between atoms: _179  and  _182
REMARK   78  A    between atoms: _182  and  _183
REMARK   79  A    between atoms: _186  and  _188
REMARK   80  A    between atoms: _188  and  _189
REMARK   81  A    between atoms: _188  and  _191
REMARK   82  A    between atoms: _191  and  _192
REMARK   83  A    between atoms: _195  and  _197
REMARK   84  A    between atoms: _197  and  _198
REMARK   85  A    between atoms: _197  and  _200
REMARK   86  A    between atoms: _203  and  _205
REMARK   87  A    between atoms: _205  and  _206
REMARK   88  A    between atoms: _205  and  _208
REMARK   89  A    between atoms: _208  and  _209
REMARK   90  A    between atoms: _209  and  _210
REMARK   91  A    between atoms: _210  and  _211
REMARK   92  A    between atoms: _220  and  _222
REMARK   93  A    between atoms: _222  and  _223
REMARK   94  A    between atoms: _222  and  _225
REMARK   95  A    between atoms: _225  and  _226
REMARK   96  A    between atoms: _229  and  _231
REMARK   97  A    between atoms: _231  and  _232
REMARK   98  A    between atoms: _231  and  _234
REMARK   99  A    between atoms: _234  and  _235
REMARK  100  A    between atoms: _237  and  _239
REMARK  101  A    between atoms: _239  and  _240
REMARK  102  A    between atoms: _239  and  _242
REMARK  103  A    between atoms: _245  and  _247
REMARK  104  A    between atoms: _247  and  _248
REMARK  105  A    between atoms: _247  and  _250
REMARK  106  A    between atoms: _252  and  _254
REMARK  107  A    between atoms: _254  and  _255
REMARK  108  A    between atoms: _254  and  _257
REMARK  109  A    between atoms: _257  and  _258
REMARK  110  A    between atoms: _263  and  _265
REMARK  111  A    between atoms: _265  and  _266
REMARK  112  A    between atoms: _269  and  _271
REMARK  113  A    between atoms: _271  and  _272
REMARK  114  A    between atoms: _274  and  _276
REMARK  115  A    between atoms: _276  and  _277
REMARK  116  A    between atoms: _276  and  _279
REMARK  117  A    between atoms: _279  and  _280
REMARK  118  A    between atoms: _283  and  _285
REMARK  119  A    between atoms: _285  and  _286
REMARK  120  A    between atoms: _288  and  _290
REMARK  121  A    between atoms: _290  and  _291
REMARK  122  A    between atoms: _290  and  _293
REMARK  123  A    between atoms: _293  and  _294
REMARK  124  A    between atoms: _297  and  _299
REMARK  125  A    between atoms: _299  and  _300
REMARK  126  A    between atoms: _299  and  _302
REMARK  127  A    between atoms: _302  and  _303
REMARK  128  A    between atoms: _306  and  _308
REMARK  129  A    between atoms: _308  and  _309
REMARK  130  A    between atoms: _308  and  _311
REMARK  131  A    between atoms: _311  and  _312
REMARK  132  A    between atoms: _314  and  _316
REMARK  133  A    between atoms: _316  and  _317
REMARK  134  A    between atoms: _316  and  _319
REMARK  135  A    between atoms: _319  and  _320
REMARK  136  A    between atoms: _323  and  _325
REMARK  137  A    between atoms: _325  and  _326
REMARK  138  A    between atoms: _325  and  _328
REMARK  139  A    between atoms: _331  and  _333
REMARK  140  A    between atoms: _333  and  _334
REMARK  141  A    between atoms: _333  and  _336
REMARK  142  A    between atoms: _336  and  _337
REMARK  143  A    between atoms: _342  and  _344
REMARK  144  A    between atoms: _344  and  _345
REMARK  145  A    between atoms: _347  and  _349
REMARK  146  A    between atoms: _349  and  _350
REMARK  147  A    between atoms: _349  and  _352
REMARK  148  A    between atoms: _352  and  _353
REMARK  149  A    between atoms: _353  and  _354
REMARK  150  A    between atoms: _354  and  _355
REMARK  151  A    between atoms: _364  and  _366
REMARK  152  A    between atoms: _366  and  _367
REMARK  153  A    between atoms: _366  and  _369
REMARK  154  A    between atoms: _369  and  _370
REMARK  155  A    between atoms: _370  and  _371
REMARK  156  A    between atoms: _373  and  _375
REMARK  157  A    between atoms: _375  and  _376
REMARK  158  A    between atoms: _375  and  _378
REMARK  159  A    between atoms: _378  and  _379
REMARK  160  A    between atoms: _382  and  _384
REMARK  161  A    between atoms: _384  and  _385
REMARK  162  A    between atoms: _387  and  _389
REMARK  163  A    between atoms: _389  and  _390
REMARK  164  A    between atoms: _389  and  _392
REMARK  165  A    between atoms: _392  and  _393
REMARK  166  A    between atoms: _395  and  _397
REMARK  167  A    between atoms: _397  and  _398
REMARK  168  A    between atoms: _397  and  _400
REMARK  169  A    between atoms: _403  and  _405
REMARK  170  A    between atoms: _405  and  _406
REMARK  171  A    between atoms: _408  and  _410
REMARK  172  A    between atoms: _410  and  _411
REMARK  173  A    between atoms: _413  and  _415
REMARK  174  A    between atoms: _415  and  _416
REMARK  175  A    between atoms: _415  and  _418
REMARK  176  A    between atoms: _418  and  _419
REMARK  177  A    between atoms: _422  and  _424
REMARK  178  A    between atoms: _424  and  _425
REMARK  179  A    between atoms: _424  and  _427
REMARK  180  A    between atoms: _427  and  _428
REMARK  181  A    between atoms: _428  and  _429
REMARK  182  A    between atoms: _431  and  _433
REMARK  183  A    between atoms: _433  and  _434
REMARK  184  A    between atoms: _436  and  _438
REMARK  185  A    between atoms: _438  and  _439
REMARK  186  A    between atoms: _438  and  _441
REMARK  187  A    between atoms: _441  and  _442
REMARK  188  A    between atoms: _446  and  _447
REMARK  189  A    between atoms: _452  and  _454
REMARK  190  A    between atoms: _454  and  _455
REMARK  191  A    between atoms: _454  and  _457
REMARK  192  A    between atoms: _457  and  _458
REMARK  193  A    between atoms: _463  and  _465
REMARK  194  A    between atoms: _465  and  _466
REMARK  195  A    between atoms: _465  and  _468
REMARK  196  A    between atoms: _468  and  _469
REMARK  197  A    between atoms: _474  and  _475
REMARK  198  A    between atoms: _477  and  _479
REMARK  199  A    between atoms: _479  and  _480
REMARK  200  A    between atoms: _479  and  _482
REMARK  201  A    between atoms: _484  and  _486
REMARK  202  A    between atoms: _486  and  _487
REMARK  203  A    between atoms: _486  and  _489
REMARK  204  A    between atoms: _489  and  _490
REMARK  205  A    between atoms: _490  and  _491
REMARK  206  A    between atoms: _491  and  _492
REMARK  207  A    between atoms: _492  and  _493
REMARK  208  A    between atoms: _497  and  _499
REMARK  209  A    between atoms: _499  and  _500
REMARK  210  A    between atoms: _499  and  _502
REMARK  211  A    between atoms: _502  and  _503
REMARK  212  A    between atoms: _503  and  _504
REMARK  213  A    between atoms: _507  and  _509
REMARK  214  A    between atoms: _509  and  _510
REMARK  215  A    between atoms: _509  and  _512
REMARK  216  A    between atoms: _514  and  _516
REMARK  217  A    between atoms: _516  and  _517
REMARK  218  A    between atoms: _520  and  _521
REMARK  219  A    between atoms: _526  and  _528
REMARK  220  A    between atoms: _528  and  _529
REMARK  221  A    between atoms: _528  and  _531
REMARK  222  A    between atoms: _534  and  _536
REMARK  223  A    between atoms: _536  and  _537
REMARK  224  A    between atoms: _536  and  _539
REMARK  225  A    between atoms: _539  and  _540
REMARK  226  A    between atoms: _543  and  _545
REMARK  227  A    between atoms: _545  and  _546
REMARK  228  A    between atoms: _545  and  _548
REMARK  229  A    between atoms: _548  and  _549
REMARK  230  A    between atoms: _555  and  _557
REMARK  231  A    between atoms: _557  and  _558
REMARK  232  A    between atoms: _557  and  _560
REMARK  233  A    between atoms: _560  and  _561
REMARK  234  A    between atoms: _561  and  _562
REMARK  235  A    between atoms: _564  and  _566
REMARK  236  A    between atoms: _566  and  _567
REMARK  237  A    between atoms: _566  and  _569
REMARK  238  A    between atoms: _569  and  _570
REMARK  239  A    between atoms: _570  and  _571
REMARK  240  A    between atoms: _574  and  _576
REMARK  241  A    between atoms: _576  and  _577
REMARK  242  A    between atoms: _576  and  _579
REMARK  243  A    between atoms: _579  and  _580
REMARK  244  A    between atoms: _580  and  _581
REMARK  245  A    between atoms: _581  and  _582
REMARK  246  A    between atoms: _582  and  _583
REMARK  247  A    between atoms: _587  and  _589
REMARK  248  A    between atoms: _589  and  _590
REMARK  249  A    between atoms: _589  and  _592
REMARK  250  A    between atoms: _592  and  _593
REMARK  251  A    between atoms: _598  and  _599
REMARK  252  A    between atoms: _601  and  _603
REMARK  253  A    between atoms: _603  and  _604
REMARK  254  A    between atoms: _603  and  _606
REMARK  255  A    between atoms: _606  and  _607
REMARK  256  A    between atoms: _610  and  _612
REMARK  257  A    between atoms: _612  and  _613
REMARK  258  A    between atoms: _612  and  _615
REMARK  259  A    between atoms: _615  and  _616
REMARK  260  A    between atoms: _621  and  _623
REMARK  261  A    between atoms: _623  and  _624
REMARK  262  A    between atoms: _623  and  _626
REMARK  263  A    between atoms: _626  and  _627
REMARK  264  A    between atoms: _629  and  _631
REMARK  265  A    between atoms: _631  and  _632
REMARK  266  A    between atoms: _631  and  _634
REMARK  267  A    between atoms: _634  and  _635
REMARK  268  A    between atoms: _635  and  _636
REMARK  269  A    between atoms: _636  and  _637
REMARK  270  A    between atoms: _637  and  _638
REMARK  271  A    between atoms: _642  and  _644
REMARK  272  A    between atoms: _644  and  _645
REMARK  273  A    between atoms: _644  and  _647
REMARK  274  A    between atoms: _647  and  _648
REMARK  275  A    between atoms: _648  and  _649
REMARK  276  A    between atoms: _654  and  _656
REMARK  277  A    between atoms: _656  and  _657
REMARK  278  A    between atoms: _656  and  _659
REMARK  279  A    between atoms: _662  and  _664
REMARK  280  A    between atoms: _664  and  _665
REMARK  281  A    between atoms: _664  and  _667
REMARK  282  A    between atoms: _667  and  _668
REMARK  283  A    between atoms: _674  and  _676
REMARK  284  A    between atoms: _676  and  _677
REMARK  285  A    between atoms: _680  and  _682
REMARK  286  A    between atoms: _682  and  _683
REMARK  287  A    between atoms: _682  and  _685
REMARK  288  A    between atoms: _685  and  _686
REMARK  289  A    between atoms: _689  and  _691
REMARK  290  A    between atoms: _691  and  _692
REMARK  291  A    between atoms: _691  and  _694
REMARK  292  A    between atoms: _694  and  _695
REMARK  293  A    between atoms: _695  and  _696
REMARK  294  A    between atoms: _696  and  _697
REMARK  295  A    between atoms: _706  and  _708
REMARK  296  A    between atoms: _708  and  _709
REMARK  297  A    between atoms: _708  and  _711
REMARK  298  A    between atoms: _711  and  _712
REMARK  299  A    between atoms: _718  and  _720
REMARK  300  A    between atoms: _720  and  _721
REMARK  301  A    between atoms: _720  and  _723
REMARK  302  A    between atoms: _723  and  _724
REMARK  303  A    between atoms: _727  and  _729
REMARK  304  A    between atoms: _729  and  _730
REMARK  305  A    between atoms: _729  and  _732
REMARK  306  A    between atoms: _732  and  _733
REMARK  307  A    between atoms: _738  and  _739
REMARK  308  A    between atoms: _741  and  _743
REMARK  309  A    between atoms: _743  and  _744
REMARK  310  A    between atoms: _747  and  _749
REMARK  311  A    between atoms: _749  and  _750
REMARK  312  A    between atoms: _749  and  _752
REMARK  313  A    between atoms: _752  and  _753
REMARK  314  A    between atoms: _753  and  _754
REMARK  315  A    between atoms: _756  and  _758
REMARK  316  A    between atoms: _758  and  _759
REMARK  317  A    between atoms: _758  and  _761
REMARK  318  A    between atoms: _761  and  _762
REMARK  319  A    between atoms: _767  and  _769
REMARK  320  A    between atoms: _769  and  _770
REMARK  321  A    between atoms: _769  and  _772
REMARK  322  A    between atoms: _772  and  _773
REMARK  323  A    between atoms: _773  and  _774
REMARK  324  A    between atoms: _774  and  _775
REMARK  325  A    between atoms: _784  and  _786
REMARK  326  A    between atoms: _786  and  _787
REMARK  327  A    between atoms: _786  and  _789
REMARK  328  A    between atoms: _789  and  _790
REMARK  329  A    between atoms: _790  and  _791
REMARK  330  A    between atoms: _794  and  _796
REMARK  331  A    between atoms: _796  and  _797
REMARK  332  A    between atoms: _796  and  _799
REMARK  333  A    between atoms: _802  and  _804
REMARK  334  A    between atoms: _804  and  _805
REMARK  335  A    between atoms: _804  and  _807
REMARK  336  A    between atoms: _807  and  _808
REMARK                            x       y       z     vdW  Elec       q    Type
REMARK                         _______ _______ _______ _____ _____    ______ ____
ROOT
ATOM      1  O   HOH     1      14.550  -8.939  -5.977  0.00  0.00    +0.000 OA
ENDROOT
TORSDOF 0
REMARK  Name = ../refined-set-2016/1i5r/1i5r_pocket.pdb
REMARK  336 active torsions:
REMARK  status: ('A' for Active; 'I' for Inactive)
REMARK    1  A    between atoms: _1  and  _3
REMARK    2  A    between atoms: _3  and  _4
REMARK    3  A    between atoms: _3  and  _6
REMARK    4  A    between atoms: _6  and  _7
REMARK    5  A    between atoms: _10  and  _12
REMARK    6  A    between atoms: _12  and  _13
REMARK    7  A    between atoms: _12  and  _15
REMARK    8  A    between atoms: _15  and  _16
REMARK    9  A    between atoms: _19  and  _21
REMARK   10  A    between atoms: _21  and  _22
REMARK   11  A    between atoms: _24  and  _26
REMARK   12  A    between atoms: _26  and  _27
REMARK   13  A    between atoms: _26  and  _29
REMARK   14  A    between atoms: _31  and  _33
REMARK   15  A    between atoms: _33  and  _34
REMARK   16  A    between atoms: _33  and  _36
REMARK   17  A    between atoms: _36  and  _37
REMARK   18  A    between atoms: _39  and  _41
REMARK   19  A    between atoms: _41  and  _42
REMARK   20  A    between atoms: _41  and  _44
REMARK   21  A    between atoms: _44  and  _45
REMARK   22  A    between atoms: _47  and  _49
REMARK   23  A    between atoms: _49  and  _50
REMARK   24  A    between atoms: _52  and  _54
REMARK   25  A    between atoms: _54  and  _55
REMARK   26  A    between atoms: _54  and  _57
REMARK   27  A    between atoms: _57  and  _58
REMARK   28  A    between atoms: _61  and  _63
REMARK   29  A    between atoms: _63  and  _64
REMARK   30  A    between atoms: _66  and  _68
REMARK   31  A    between atoms: _68  and  _69
REMARK   32  A    between atoms: _68  and  _71
REMARK   33  A    between atoms: _71  and  _72
REMARK   34  A    between atoms: _75  and  _77
REMARK   35  A    between atoms: _77  and  _78
REMARK   36  A    between atoms: _77  and  _80
REMARK   37  A    between atoms: _80  and  _81
REMARK   38  A    between atoms: _86  and  _88
REMARK   39  A    between atoms: _88  and  _89
REMARK   40  A    between atoms: _88  and  _91
REMARK   41  A    between atoms: _91  and  _92
REMARK   42  A    between atoms: _95  and  _97
REMARK   43  A    between atoms: _97  and  _98
REMARK   44  A    between atoms: _97  and  _100
REMARK   45  A    between atoms: _100  and  _101
REMARK   46  A    between atoms: _104  and  _106
REMARK   47  A    between atoms: _106  and  _107
REMARK   48  A    between atoms: _106  and  _109
REMARK   49  A    between atoms: _109  and  _110
REMARK   50  A    between atoms: _110  and  _111
REMARK   51  A    between atoms: _111  and  _112
REMARK   52  A    between atoms: _121  and  _123
REMARK   53  A    between atoms: _123  and  _124
REMARK   54  A    between atoms: _123  and  _126
REMARK   55  A    between atoms: _126  and  _127
REMARK   56  A    between atoms: _130  and  _132
REMARK   57  A    between atoms: _132  and  _133
REMARK   58  A    between atoms: _132  and  _135
REMARK   59  A    between atoms: _135  and  _136
REMARK   60  A    between atoms: _139  and  _141
REMARK   61  A    between atoms: _141  and  _142
REMARK   62  A    between atoms: _141  and  _144
REMARK   63  A    between atoms: _144  and  _145
REMARK   64  A    between atoms: _145  and  _146
REMARK   65  A    between atoms: _146  and  _147
REMARK   66  A    between atoms: _156  and  _158
REMARK   67  A    between atoms: _158  and  _159
REMARK   68  A    between atoms: _158  and  _161
REMARK   69  A    between atoms: _161  and  _162
REMARK   70  A    between atoms: _165  and  _167
REMARK   71  A    between atoms: _167  and  _168
REMARK   72  A    between atoms: _167  and  _170
REMARK   73  A    between atoms: _170  and  _171
REMARK   74  A    between atoms: _171  and  _172
REMARK   75  A    between atoms: _177  and  _179
REMARK   76  A    between atoms: _179  and  _180
REMARK   77  A    between atoms: _179  and  _182
REMARK   78  A    between atoms: _182  and  _183
REMARK   79  A    between atoms: _186  and  _188
REMARK   80  A    between atoms: _188  and  _189
REMARK   81  A    between atoms: _188  and  _191
REMARK   82  A    between atoms: _191  and  _192
REMARK   83  A    between atoms: _195  and  _197
REMARK   84  A    between atoms: _197  and  _198
REMARK   85  A    between atoms: _197  and  _200
REMARK   86  A    between atoms: _203  and  _205
REMARK   87  A    between atoms: _205  and  _206
REMARK   88  A    between atoms: _205  and  _208
REMARK   89  A    between atoms: _208  and  _209
REMARK   90  A    between atoms: _209  and  _210
REMARK   91  A    between atoms: _210  and  _211
REMARK   92  A    between atoms: _220  and  _222
REMARK   93  A    between atoms: _222  and  _223
REMARK   94  A    between atoms: _222  and  _225
REMARK   95  A    between atoms: _225  and  _226
REMARK   96  A    between atoms: _229  and  _231
REMARK   97  A    between atoms: _231  and  _232
REMARK   98  A    between atoms: _231  and  _234
REMARK   99  A    between atoms: _234  and  _235
REMARK  100  A    between atoms: _237  and  _239
REMARK  101  A    between atoms: _239  and  _240
REMARK  102  A    between atoms: _239  and  _242
REMARK  103  A    between atoms: _245  and  _247
REMARK  104  A    between atoms: _247  and  _248
REMARK  105  A    between atoms: _247  and  _250
REMARK  106  A    between atoms: _252  and  _254
REMARK  107  A    between atoms: _254  and  _255
REMARK  108  A    between atoms: _254  and  _257
REMARK  109  A    between atoms: _257  and  _258
REMARK  110  A    between atoms: _263  and  _265
REMARK  111  A    between atoms: _265  and  _266
REMARK  112  A    between atoms: _269  and  _271
REMARK  113  A    between atoms: _271  and  _272
REMARK  114  A    between atoms: _274  and  _276
REMARK  115  A    between atoms: _276  and  _277
REMARK  116  A    between atoms: _276  and  _279
REMARK  117  A    between atoms: _279  and  _280
REMARK  118  A    between atoms: _283  and  _285
REMARK  119  A    between atoms: _285  and  _286
REMARK  120  A    between atoms: _288  and  _290
REMARK  121  A    between atoms: _290  and  _291
REMARK  122  A    between atoms: _290  and  _293
REMARK  123  A    between atoms: _293  and  _294
REMARK  124  A    between atoms: _297  and  _299
REMARK  125  A    between atoms: _299  and  _300
REMARK  126  A    between atoms: _299  and  _302
REMARK  127  A    between atoms: _302  and  _303
REMARK  128  A    between atoms: _306  and  _308
REMARK  129  A    between atoms: _308  and  _309
REMARK  130  A    between atoms: _308  and  _311
REMARK  131  A    between atoms: _311  and  _312
REMARK  132  A    between atoms: _314  and  _316
REMARK  133  A    between atoms: _316  and  _317
REMARK  134  A    between atoms: _316  and  _319
REMARK  135  A    between atoms: _319  and  _320
REMARK  136  A    between atoms: _323  and  _325
REMARK  137  A    between atoms: _325  and  _326
REMARK  138  A    between atoms: _325  and  _328
REMARK  139  A    between atoms: _331  and  _333
REMARK  140  A    between atoms: _333  and  _334
REMARK  141  A    between atoms: _333  and  _336
REMARK  142  A    between atoms: _336  and  _337
REMARK  143  A    between atoms: _342  and  _344
REMARK  144  A    between atoms: _344  and  _345
REMARK  145  A    between atoms: _347  and  _349
REMARK  146  A    between atoms: _349  and  _350
REMARK  147  A    between atoms: _349  and  _352
REMARK  148  A    between atoms: _352  and  _353
REMARK  149  A    between atoms: _353  and  _354
REMARK  150  A    between atoms: _354  and  _355
REMARK  151  A    between atoms: _364  and  _366
REMARK  152  A    between atoms: _366  and  _367
REMARK  153  A    between atoms: _366  and  _369
REMARK  154  A    between atoms: _369  and  _370
REMARK  155  A    between atoms: _370  and  _371
REMARK  156  A    between atoms: _373  and  _375
REMARK  157  A    between atoms: _375  and  _376
REMARK  158  A    between atoms: _375  and  _378
REMARK  159  A    between atoms: _378  and  _379
REMARK  160  A    between atoms: _382  and  _384
REMARK  161  A    between atoms: _384  and  _385
REMARK  162  A    between atoms: _387  and  _389
REMARK  163  A    between atoms: _389  and  _390
REMARK  164  A    between atoms: _389  and  _392
REMARK  165  A    between atoms: _392  and  _393
REMARK  166  A    between atoms: _395  and  _397
REMARK  167  A    between atoms: _397  and  _398
REMARK  168  A    between atoms: _397  and  _400
REMARK  169  A    between atoms: _403  and  _405
REMARK  170  A    between atoms: _405  and  _406
REMARK  171  A    between atoms: _408  and  _410
REMARK  172  A    between atoms: _410  and  _411
REMARK  173  A    between atoms: _413  and  _415
REMARK  174  A    between atoms: _415  and  _416
REMARK  175  A    between atoms: _415  and  _418
REMARK  176  A    between atoms: _418  and  _419
REMARK  177  A    between atoms: _422  and  _424
REMARK  178  A    between atoms: _424  and  _425
REMARK  179  A    between atoms: _424  and  _427
REMARK  180  A    between atoms: _427  and  _428
REMARK  181  A    between atoms: _428  and  _429
REMARK  182  A    between atoms: _431  and  _433
REMARK  183  A    between atoms: _433  and  _434
REMARK  184  A    between atoms: _436  and  _438
REMARK  185  A    between atoms: _438  and  _439
REMARK  186  A    between atoms: _438  and  _441
REMARK  187  A    between atoms: _441  and  _442
REMARK  188  A    between atoms: _446  and  _447
REMARK  189  A    between atoms: _452  and  _454
REMARK  190  A    between atoms: _454  and  _455
REMARK  191  A    between atoms: _454  and  _457
REMARK  192  A    between atoms: _457  and  _458
REMARK  193  A    between atoms: _463  and  _465
REMARK  194  A    between atoms: _465  and  _466
REMARK  195  A    between atoms: _465  and  _468
REMARK  196  A    between atoms: _468  and  _469
REMARK  197  A    between atoms: _474  and  _475
REMARK  198  A    between atoms: _477  and  _479
REMARK  199  A    between atoms: _479  and  _480
REMARK  200  A    between atoms: _479  and  _482
REMARK  201  A    between atoms: _484  and  _486
REMARK  202  A    between atoms: _486  and  _487
REMARK  203  A    between atoms: _486  and  _489
REMARK  204  A    between atoms: _489  and  _490
REMARK  205  A    between atoms: _490  and  _491
REMARK  206  A    between atoms: _491  and  _492
REMARK  207  A    between atoms: _492  and  _493
REMARK  208  A    between atoms: _497  and  _499
REMARK  209  A    between atoms: _499  and  _500
REMARK  210  A    between atoms: _499  and  _502
REMARK  211  A    between atoms: _502  and  _503
REMARK  212  A    between atoms: _503  and  _504
REMARK  213  A    between atoms: _507  and  _509
REMARK  214  A    between atoms: _509  and  _510
REMARK  215  A    between atoms: _509  and  _512
REMARK  216  A    between atoms: _514  and  _516
REMARK  217  A    between atoms: _516  and  _517
REMARK  218  A    between atoms: _520  and  _521
REMARK  219  A    between atoms: _526  and  _528
REMARK  220  A    between atoms: _528  and  _529
REMARK  221  A    between atoms: _528  and  _531
REMARK  222  A    between atoms: _534  and  _536
REMARK  223  A    between atoms: _536  and  _537
REMARK  224  A    between atoms: _536  and  _539
REMARK  225  A    between atoms: _539  and  _540
REMARK  226  A    between atoms: _543  and  _545
REMARK  227  A    between atoms: _545  and  _546
REMARK  228  A    between atoms: _545  and  _548
REMARK  229  A    between atoms: _548  and  _549
REMARK  230  A    between atoms: _555  and  _557
REMARK  231  A    between atoms: _557  and  _558
REMARK  232  A    between atoms: _557  and  _560
REMARK  233  A    between atoms: _560  and  _561
REMARK  234  A    between atoms: _561  and  _562
REMARK  235  A    between atoms: _564  and  _566
REMARK  236  A    between atoms: _566  and  _567
REMARK  237  A    between atoms: _566  and  _569
REMARK  238  A    between atoms: _569  and  _570
REMARK  239  A    between atoms: _570  and  _571
REMARK  240  A    between atoms: _574  and  _576
REMARK  241  A    between atoms: _576  and  _577
REMARK  242  A    between atoms: _576  and  _579
REMARK  243  A    between atoms: _579  and  _580
REMARK  244  A    between atoms: _580  and  _581
REMARK  245  A    between atoms: _581  and  _582
REMARK  246  A    between atoms: _582  and  _583
REMARK  247  A    between atoms: _587  and  _589
REMARK  248  A    between atoms: _589  and  _590
REMARK  249  A    between atoms: _589  and  _592
REMARK  250  A    between atoms: _592  and  _593
REMARK  251  A    between atoms: _598  and  _599
REMARK  252  A    between atoms: _601  and  _603
REMARK  253  A    between atoms: _603  and  _604
REMARK  254  A    between atoms: _603  and  _606
REMARK  255  A    between atoms: _606  and  _607
REMARK  256  A    between atoms: _610  and  _612
REMARK  257  A    between atoms: _612  and  _613
REMARK  258  A    between atoms: _612  and  _615
REMARK  259  A    between atoms: _615  and  _616
REMARK  260  A    between atoms: _621  and  _623
REMARK  261  A    between atoms: _623  and  _624
REMARK  262  A    between atoms: _623  and  _626
REMARK  263  A    between atoms: _626  and  _627
REMARK  264  A    between atoms: _629  and  _631
REMARK  265  A    between atoms: _631  and  _632
REMARK  266  A    between atoms: _631  and  _634
REMARK  267  A    between atoms: _634  and  _635
REMARK  268  A    between atoms: _635  and  _636
REMARK  269  A    between atoms: _636  and  _637
REMARK  270  A    between atoms: _637  and  _638
REMARK  271  A    between atoms: _642  and  _644
REMARK  272  A    between atoms: _644  and  _645
REMARK  273  A    between atoms: _644  and  _647
REMARK  274  A    between atoms: _647  and  _648
REMARK  275  A    between atoms: _648  and  _649
REMARK  276  A    between atoms: _654  and  _656
REMARK  277  A    between atoms: _656  and  _657
REMARK  278  A    between atoms: _656  and  _659
REMARK  279  A    between atoms: _662  and  _664
REMARK  280  A    between atoms: _664  and  _665
REMARK  281  A    between atoms: _664  and  _667
REMARK  282  A    between atoms: _667  and  _668
REMARK  283  A    between atoms: _674  and  _676
REMARK  284  A    between atoms: _676  and  _677
REMARK  285  A    between atoms: _680  and  _682
REMARK  286  A    between atoms: _682  and  _683
REMARK  287  A    between atoms: _682  and  _685
REMARK  288  A    between atoms: _685  and  _686
REMARK  289  A    between atoms: _689  and  _691
REMARK  290  A    between atoms: _691  and  _692
REMARK  291  A    between atoms: _691  and  _694
REMARK  292  A    between atoms: _694  and  _695
REMARK  293  A    between atoms: _695  and  _696
REMARK  294  A    between atoms: _696  and  _697
REMARK  295  A    between atoms: _706  and  _708
REMARK  296  A    between atoms: _708  and  _709
REMARK  297  A    between atoms: _708  and  _711
REMARK  298  A    between atoms: _711  and  _712
REMARK  299  A    between atoms: _718  and  _720
REMARK  300  A    between atoms: _720  and  _721
REMARK  301  A    between atoms: _720  and  _723
REMARK  302  A    between atoms: _723  and  _724
REMARK  303  A    between atoms: _727  and  _729
REMARK  304  A    between atoms: _729  and  _730
REMARK  305  A    between atoms: _729  and  _732
REMARK  306  A    between atoms: _732  and  _733
REMARK  307  A    between atoms: _738  and  _739
REMARK  308  A    between atoms: _741  and  _743
REMARK  309  A    between atoms: _743  and  _744
REMARK  310  A    between atoms: _747  and  _749
REMARK  311  A    between atoms: _749  and  _750
REMARK  312  A    between atoms: _749  and  _752
REMARK  313  A    between atoms: _752  and  _753
REMARK  314  A    between atoms: _753  and  _754
REMARK  315  A    between atoms: _756  and  _758
REMARK  316  A    between atoms: _758  and  _759
REMARK  317  A    between atoms: _758  and  _761
REMARK  318  A    between atoms: _761  and  _762
REMARK  319  A    between atoms: _767  and  _769
REMARK  320  A    between atoms: _769  and  _770
REMARK  321  A    between atoms: _769  and  _772
REMARK  322  A    between atoms: _772  and  _773
REMARK  323  A    between atoms: _773  and  _774
REMARK  324  A    between atoms: _774  and  _775
REMARK  325  A    between atoms: _784  and  _786
REMARK  326  A    between atoms: _786  and  _787
REMARK  327  A    between atoms: _786  and  _789
REMARK  328  A    between atoms: _789  and  _790
REMARK  329  A    between atoms: _790  and  _791
REMARK  330  A    between atoms: _794  and  _796
REMARK  331  A    between atoms: _796  and  _797
REMARK  332  A    between atoms: _796  and  _799
REMARK  333  A    between atoms: _802  and  _804
REMARK  334  A    between atoms: _804  and  _805
REMARK  335  A    between atoms: _804  and  _807
REMARK  336  A    between atoms: _807  and  _808
REMARK                            x       y       z     vdW  Elec       q    Type
REMARK                         _______ _______ _______ _____ _____    ______ ____
ROOT
ATOM      1  O   HOH     1      14.438 -16.516   1.345  0.00  0.00    +0.000 OA
ENDROOT
TORSDOF 0
REMARK  Name = ../refined-set-2016/1i5r/1i5r_pocket.pdb
REMARK  336 active torsions:
REMARK  status: ('A' for Active; 'I' for Inactive)
REMARK    1  A    between atoms: _1  and  _3
REMARK    2  A    between atoms: _3  and  _4
REMARK    3  A    between atoms: _3  and  _6
REMARK    4  A    between atoms: _6  and  _7
REMARK    5  A    between atoms: _10  and  _12
REMARK    6  A    between atoms: _12  and  _13
REMARK    7  A    between atoms: _12  and  _15
REMARK    8  A    between atoms: _15  and  _16
REMARK    9  A    between atoms: _19  and  _21
REMARK   10  A    between atoms: _21  and  _22
REMARK   11  A    between atoms: _24  and  _26
REMARK   12  A    between atoms: _26  and  _27
REMARK   13  A    between atoms: _26  and  _29
REMARK   14  A    between atoms: _31  and  _33
REMARK   15  A    between atoms: _33  and  _34
REMARK   16  A    between atoms: _33  and  _36
REMARK   17  A    between atoms: _36  and  _37
REMARK   18  A    between atoms: _39  and  _41
REMARK   19  A    between atoms: _41  and  _42
REMARK   20  A    between atoms: _41  and  _44
REMARK   21  A    between atoms: _44  and  _45
REMARK   22  A    between atoms: _47  and  _49
REMARK   23  A    between atoms: _49  and  _50
REMARK   24  A    between atoms: _52  and  _54
REMARK   25  A    between atoms: _54  and  _55
REMARK   26  A    between atoms: _54  and  _57
REMARK   27  A    between atoms: _57  and  _58
REMARK   28  A    between atoms: _61  and  _63
REMARK   29  A    between atoms: _63  and  _64
REMARK   30  A    between atoms: _66  and  _68
REMARK   31  A    between atoms: _68  and  _69
REMARK   32  A    between atoms: _68  and  _71
REMARK   33  A    between atoms: _71  and  _72
REMARK   34  A    between atoms: _75  and  _77
REMARK   35  A    between atoms: _77  and  _78
REMARK   36  A    between atoms: _77  and  _80
REMARK   37  A    between atoms: _80  and  _81
REMARK   38  A    between atoms: _86  and  _88
REMARK   39  A    between atoms: _88  and  _89
REMARK   40  A    between atoms: _88  and  _91
REMARK   41  A    between atoms: _91  and  _92
REMARK   42  A    between atoms: _95  and  _97
REMARK   43  A    between atoms: _97  and  _98
REMARK   44  A    between atoms: _97  and  _100
REMARK   45  A    between atoms: _100  and  _101
REMARK   46  A    between atoms: _104  and  _106
REMARK   47  A    between atoms: _106  and  _107
REMARK   48  A    between atoms: _106  and  _109
REMARK   49  A    between atoms: _109  and  _110
REMARK   50  A    between atoms: _110  and  _111
REMARK   51  A    between atoms: _111  and  _112
REMARK   52  A    between atoms: _121  and  _123
REMARK   53  A    between atoms: _123  and  _124
REMARK   54  A    between atoms: _123  and  _126
REMARK   55  A    between atoms: _126  and  _127
REMARK   56  A    between atoms: _130  and  _132
REMARK   57  A    between atoms: _132  and  _133
REMARK   58  A    between atoms: _132  and  _135
REMARK   59  A    between atoms: _135  and  _136
REMARK   60  A    between atoms: _139  and  _141
REMARK   61  A    between atoms: _141  and  _142
REMARK   62  A    between atoms: _141  and  _144
REMARK   63  A    between atoms: _144  and  _145
REMARK   64  A    between atoms: _145  and  _146
REMARK   65  A    between atoms: _146  and  _147
REMARK   66  A    between atoms: _156  and  _158
REMARK   67  A    between atoms: _158  and  _159
REMARK   68  A    between atoms: _158  and  _161
REMARK   69  A    between atoms: _161  and  _162
REMARK   70  A    between atoms: _165  and  _167
REMARK   71  A    between atoms: _167  and  _168
REMARK   72  A    between atoms: _167  and  _170
REMARK   73  A    between atoms: _170  and  _171
REMARK   74  A    between atoms: _171  and  _172
REMARK   75  A    between atoms: _177  and  _179
REMARK   76  A    between atoms: _179  and  _180
REMARK   77  A    between atoms: _179  and  _182
REMARK   78  A    between atoms: _182  and  _183
REMARK   79  A    between atoms: _186  and  _188
REMARK   80  A    between atoms: _188  and  _189
REMARK   81  A    between atoms: _188  and  _191
REMARK   82  A    between atoms: _191  and  _192
REMARK   83  A    between atoms: _195  and  _197
REMARK   84  A    between atoms: _197  and  _198
REMARK   85  A    between atoms: _197  and  _200
REMARK   86  A    between atoms: _203  and  _205
REMARK   87  A    between atoms: _205  and  _206
REMARK   88  A    between atoms: _205  and  _208
REMARK   89  A    between atoms: _208  and  _209
REMARK   90  A    between atoms: _209  and  _210
REMARK   91  A    between atoms: _210  and  _211
REMARK   92  A    between atoms: _220  and  _222
REMARK   93  A    between atoms: _222  and  _223
REMARK   94  A    between atoms: _222  and  _225
REMARK   95  A    between atoms: _225  and  _226
REMARK   96  A    between atoms: _229  and  _231
REMARK   97  A    between atoms: _231  and  _232
REMARK   98  A    between atoms: _231  and  _234
REMARK   99  A    between atoms: _234  and  _235
REMARK  100  A    between atoms: _237  and  _239
REMARK  101  A    between atoms: _239  and  _240
REMARK  102  A    between atoms: _239  and  _242
REMARK  103  A    between atoms: _245  and  _247
REMARK  104  A    between atoms: _247  and  _248
REMARK  105  A    between atoms: _247  and  _250
REMARK  106  A    between atoms: _252  and  _254
REMARK  107  A    between atoms: _254  and  _255
REMARK  108  A    between atoms: _254  and  _257
REMARK  109  A    between atoms: _257  and  _258
REMARK  110  A    between atoms: _263  and  _265
REMARK  111  A    between atoms: _265  and  _266
REMARK  112  A    between atoms: _269  and  _271
REMARK  113  A    between atoms: _271  and  _272
REMARK  114  A    between atoms: _274  and  _276
REMARK  115  A    between atoms: _276  and  _277
REMARK  116  A    between atoms: _276  and  _279
REMARK  117  A    between atoms: _279  and  _280
REMARK  118  A    between atoms: _283  and  _285
REMARK  119  A    between atoms: _285  and  _286
REMARK  120  A    between atoms: _288  and  _290
REMARK  121  A    between atoms: _290  and  _291
REMARK  122  A    between atoms: _290  and  _293
REMARK  123  A    between atoms: _293  and  _294
REMARK  124  A    between atoms: _297  and  _299
REMARK  125  A    between atoms: _299  and  _300
REMARK  126  A    between atoms: _299  and  _302
REMARK  127  A    between atoms: _302  and  _303
REMARK  128  A    between atoms: _306  and  _308
REMARK  129  A    between atoms: _308  and  _309
REMARK  130  A    between atoms: _308  and  _311
REMARK  131  A    between atoms: _311  and  _312
REMARK  132  A    between atoms: _314  and  _316
REMARK  133  A    between atoms: _316  and  _317
REMARK  134  A    between atoms: _316  and  _319
REMARK  135  A    between atoms: _319  and  _320
REMARK  136  A    between atoms: _323  and  _325
REMARK  137  A    between atoms: _325  and  _326
REMARK  138  A    between atoms: _325  and  _328
REMARK  139  A    between atoms: _331  and  _333
REMARK  140  A    between atoms: _333  and  _334
REMARK  141  A    between atoms: _333  and  _336
REMARK  142  A    between atoms: _336  and  _337
REMARK  143  A    between atoms: _342  and  _344
REMARK  144  A    between atoms: _344  and  _345
REMARK  145  A    between atoms: _347  and  _349
REMARK  146  A    between atoms: _349  and  _350
REMARK  147  A    between atoms: _349  and  _352
REMARK  148  A    between atoms: _352  and  _353
REMARK  149  A    between atoms: _353  and  _354
REMARK  150  A    between atoms: _354  and  _355
REMARK  151  A    between atoms: _364  and  _366
REMARK  152  A    between atoms: _366  and  _367
REMARK  153  A    between atoms: _366  and  _369
REMARK  154  A    between atoms: _369  and  _370
REMARK  155  A    between atoms: _370  and  _371
REMARK  156  A    between atoms: _373  and  _375
REMARK  157  A    between atoms: _375  and  _376
REMARK  158  A    between atoms: _375  and  _378
REMARK  159  A    between atoms: _378  and  _379
REMARK  160  A    between atoms: _382  and  _384
REMARK  161  A    between atoms: _384  and  _385
REMARK  162  A    between atoms: _387  and  _389
REMARK  163  A    between atoms: _389  and  _390
REMARK  164  A    between atoms: _389  and  _392
REMARK  165  A    between atoms: _392  and  _393
REMARK  166  A    between atoms: _395  and  _397
REMARK  167  A    between atoms: _397  and  _398
REMARK  168  A    between atoms: _397  and  _400
REMARK  169  A    between atoms: _403  and  _405
REMARK  170  A    between atoms: _405  and  _406
REMARK  171  A    between atoms: _408  and  _410
REMARK  172  A    between atoms: _410  and  _411
REMARK  173  A    between atoms: _413  and  _415
REMARK  174  A    between atoms: _415  and  _416
REMARK  175  A    between atoms: _415  and  _418
REMARK  176  A    between atoms: _418  and  _419
REMARK  177  A    between atoms: _422  and  _424
REMARK  178  A    between atoms: _424  and  _425
REMARK  179  A    between atoms: _424  and  _427
REMARK  180  A    between atoms: _427  and  _428
REMARK  181  A    between atoms: _428  and  _429
REMARK  182  A    between atoms: _431  and  _433
REMARK  183  A    between atoms: _433  and  _434
REMARK  184  A    between atoms: _436  and  _438
REMARK  185  A    between atoms: _438  and  _439
REMARK  186  A    between atoms: _438  and  _441
REMARK  187  A    between atoms: _441  and  _442
REMARK  188  A    between atoms: _446  and  _447
REMARK  189  A    between atoms: _452  and  _454
REMARK  190  A    between atoms: _454  and  _455
REMARK  191  A    between atoms: _454  and  _457
REMARK  192  A    between atoms: _457  and  _458
REMARK  193  A    between atoms: _463  and  _465
REMARK  194  A    between atoms: _465  and  _466
REMARK  195  A    between atoms: _465  and  _468
REMARK  196  A    between atoms: _468  and  _469
REMARK  197  A    between atoms: _474  and  _475
REMARK  198  A    between atoms: _477  and  _479
REMARK  199  A    between atoms: _479  and  _480
REMARK  200  A    between atoms: _479  and  _482
REMARK  201  A    between atoms: _484  and  _486
REMARK  202  A    between atoms: _486  and  _487
REMARK  203  A    between atoms: _486  and  _489
REMARK  204  A    between atoms: _489  and  _490
REMARK  205  A    between atoms: _490  and  _491
REMARK  206  A    between atoms: _491  and  _492
REMARK  207  A    between atoms: _492  and  _493
REMARK  208  A    between atoms: _497  and  _499
REMARK  209  A    between atoms: _499  and  _500
REMARK  210  A    between atoms: _499  and  _502
REMARK  211  A    between atoms: _502  and  _503
REMARK  212  A    between atoms: _503  and  _504
REMARK  213  A    between atoms: _507  and  _509
REMARK  214  A    between atoms: _509  and  _510
REMARK  215  A    between atoms: _509  and  _512
REMARK  216  A    between atoms: _514  and  _516
REMARK  217  A    between atoms: _516  and  _517
REMARK  218  A    between atoms: _520  and  _521
REMARK  219  A    between atoms: _526  and  _528
REMARK  220  A    between atoms: _528  and  _529
REMARK  221  A    between atoms: _528  and  _531
REMARK  222  A    between atoms: _534  and  _536
REMARK  223  A    between atoms: _536  and  _537
REMARK  224  A    between atoms: _536  and  _539
REMARK  225  A    between atoms: _539  and  _540
REMARK  226  A    between atoms: _543  and  _545
REMARK  227  A    between atoms: _545  and  _546
REMARK  228  A    between atoms: _545  and  _548
REMARK  229  A    between atoms: _548  and  _549
REMARK  230  A    between atoms: _555  and  _557
REMARK  231  A    between atoms: _557  and  _558
REMARK  232  A    between atoms: _557  and  _560
REMARK  233  A    between atoms: _560  and  _561
REMARK  234  A    between atoms: _561  and  _562
REMARK  235  A    between atoms: _564  and  _566
REMARK  236  A    between atoms: _566  and  _567
REMARK  237  A    between atoms: _566  and  _569
REMARK  238  A    between atoms: _569  and  _570
REMARK  239  A    between atoms: _570  and  _571
REMARK  240  A    between atoms: _574  and  _576
REMARK  241  A    between atoms: _576  and  _577
REMARK  242  A    between atoms: _576  and  _579
REMARK  243  A    between atoms: _579  and  _580
REMARK  244  A    between atoms: _580  and  _581
REMARK  245  A    between atoms: _581  and  _582
REMARK  246  A    between atoms: _582  and  _583
REMARK  247  A    between atoms: _587  and  _589
REMARK  248  A    between atoms: _589  and  _590
REMARK  249  A    between atoms: _589  and  _592
REMARK  250  A    between atoms: _592  and  _593
REMARK  251  A    between atoms: _598  and  _599
REMARK  252  A    between atoms: _601  and  _603
REMARK  253  A    between atoms: _603  and  _604
REMARK  254  A    between atoms: _603  and  _606
REMARK  255  A    between atoms: _606  and  _607
REMARK  256  A    between atoms: _610  and  _612
REMARK  257  A    between atoms: _612  and  _613
REMARK  258  A    between atoms: _612  and  _615
REMARK  259  A    between atoms: _615  and  _616
REMARK  260  A    between atoms: _621  and  _623
REMARK  261  A    between atoms: _623  and  _624
REMARK  262  A    between atoms: _623  and  _626
REMARK  263  A    between atoms: _626  and  _627
REMARK  264  A    between atoms: _629  and  _631
REMARK  265  A    between atoms: _631  and  _632
REMARK  266  A    between atoms: _631  and  _634
REMARK  267  A    between atoms: _634  and  _635
REMARK  268  A    between atoms: _635  and  _636
REMARK  269  A    between atoms: _636  and  _637
REMARK  270  A    between atoms: _637  and  _638
REMARK  271  A    between atoms: _642  and  _644
REMARK  272  A    between atoms: _644  and  _645
REMARK  273  A    between atoms: _644  and  _647
REMARK  274  A    between atoms: _647  and  _648
REMARK  275  A    between atoms: _648  and  _649
REMARK  276  A    between atoms: _654  and  _656
REMARK  277  A    between atoms: _656  and  _657
REMARK  278  A    between atoms: _656  and  _659
REMARK  279  A    between atoms: _662  and  _664
REMARK  280  A    between atoms: _664  and  _665
REMARK  281  A    between atoms: _664  and  _667
REMARK  282  A    between atoms: _667  and  _668
REMARK  283  A    between atoms: _674  and  _676
REMARK  284  A    between atoms: _676  and  _677
REMARK  285  A    between atoms: _680  and  _682
REMARK  286  A    between atoms: _682  and  _683
REMARK  287  A    between atoms: _682  and  _685
REMARK  288  A    between atoms: _685  and  _686
REMARK  289  A    between atoms: _689  and  _691
REMARK  290  A    between atoms: _691  and  _692
REMARK  291  A    between atoms: _691  and  _694
REMARK  292  A    between atoms: _694  and  _695
REMARK  293  A    between atoms: _695  and  _696
REMARK  294  A    between atoms: _696  and  _697
REMARK  295  A    between atoms: _706  and  _708
REMARK  296  A    between atoms: _708  and  _709
REMARK  297  A    between atoms: _708  and  _711
REMARK  298  A    between atoms: _711  and  _712
REMARK  299  A    between atoms: _718  and  _720
REMARK  300  A    between atoms: _720  and  _721
REMARK  301  A    between atoms: _720  and  _723
REMARK  302  A    between atoms: _723  and  _724
REMARK  303  A    between atoms: _727  and  _729
REMARK  304  A    between atoms: _729  and  _730
REMARK  305  A    between atoms: _729  and  _732
REMARK  306  A    between atoms: _732  and  _733
REMARK  307  A    between atoms: _738  and  _739
REMARK  308  A    between atoms: _741  and  _743
REMARK  309  A    between atoms: _743  and  _744
REMARK  310  A    between atoms: _747  and  _749
REMARK  311  A    between atoms: _749  and  _750
REMARK  312  A    between atoms: _749  and  _752
REMARK  313  A    between atoms: _752  and  _753
REMARK  314  A    between atoms: _753  and  _754
REMARK  315  A    between atoms: _756  and  _758
REMARK  316  A    between atoms: _758  and  _759
REMARK  317  A    between atoms: _758  and  _761
REMARK  318  A    between atoms: _761  and  _762
REMARK  319  A    between atoms: _767  and  _769
REMARK  320  A    between atoms: _769  and  _770
REMARK  321  A    between atoms: _769  and  _772
REMARK  322  A    between atoms: _772  and  _773
REMARK  323  A    between atoms: _773  and  _774
REMARK  324  A    between atoms: _774  and  _775
REMARK  325  A    between atoms: _784  and  _786
REMARK  326  A    between atoms: _786  and  _787
REMARK  327  A    between atoms: _786  and  _789
REMARK  328  A    between atoms: _789  and  _790
REMARK  329  A    between atoms: _790  and  _791
REMARK  330  A    between atoms: _794  and  _796
REMARK  331  A    between atoms: _796  and  _797
REMARK  332  A    between atoms: _796  and  _799
REMARK  333  A    between atoms: _802  and  _804
REMARK  334  A    between atoms: _804  and  _805
REMARK  335  A    between atoms: _804  and  _807
REMARK  336  A    between atoms: _807  and  _808
REMARK                            x       y       z     vdW  Elec       q    Type
REMARK                         _______ _______ _______ _____ _____    ______ ____
ROOT
ATOM      1  O   HOH     1      19.209 -14.363  -5.841  0.00  0.00    +0.000 OA
ENDROOT
TORSDOF 0
REMARK  Name = ../refined-set-2016/1i5r/1i5r_pocket.pdb
REMARK  336 active torsions:
REMARK  status: ('A' for Active; 'I' for Inactive)
REMARK    1  A    between atoms: _1  and  _3
REMARK    2  A    between atoms: _3  and  _4
REMARK    3  A    between atoms: _3  and  _6
REMARK    4  A    between atoms: _6  and  _7
REMARK    5  A    between atoms: _10  and  _12
REMARK    6  A    between atoms: _12  and  _13
REMARK    7  A    between atoms: _12  and  _15
REMARK    8  A    between atoms: _15  and  _16
REMARK    9  A    between atoms: _19  and  _21
REMARK   10  A    between atoms: _21  and  _22
REMARK   11  A    between atoms: _24  and  _26
REMARK   12  A    between atoms: _26  and  _27
REMARK   13  A    between atoms: _26  and  _29
REMARK   14  A    between atoms: _31  and  _33
REMARK   15  A    between atoms: _33  and  _34
REMARK   16  A    between atoms: _33  and  _36
REMARK   17  A    between atoms: _36  and  _37
REMARK   18  A    between atoms: _39  and  _41
REMARK   19  A    between atoms: _41  and  _42
REMARK   20  A    between atoms: _41  and  _44
REMARK   21  A    between atoms: _44  and  _45
REMARK   22  A    between atoms: _47  and  _49
REMARK   23  A    between atoms: _49  and  _50
REMARK   24  A    between atoms: _52  and  _54
REMARK   25  A    between atoms: _54  and  _55
REMARK   26  A    between atoms: _54  and  _57
REMARK   27  A    between atoms: _57  and  _58
REMARK   28  A    between atoms: _61  and  _63
REMARK   29  A    between atoms: _63  and  _64
REMARK   30  A    between atoms: _66  and  _68
REMARK   31  A    between atoms: _68  and  _69
REMARK   32  A    between atoms: _68  and  _71
REMARK   33  A    between atoms: _71  and  _72
REMARK   34  A    between atoms: _75  and  _77
REMARK   35  A    between atoms: _77  and  _78
REMARK   36  A    between atoms: _77  and  _80
REMARK   37  A    between atoms: _80  and  _81
REMARK   38  A    between atoms: _86  and  _88
REMARK   39  A    between atoms: _88  and  _89
REMARK   40  A    between atoms: _88  and  _91
REMARK   41  A    between atoms: _91  and  _92
REMARK   42  A    between atoms: _95  and  _97
REMARK   43  A    between atoms: _97  and  _98
REMARK   44  A    between atoms: _97  and  _100
REMARK   45  A    between atoms: _100  and  _101
REMARK   46  A    between atoms: _104  and  _106
REMARK   47  A    between atoms: _106  and  _107
REMARK   48  A    between atoms: _106  and  _109
REMARK   49  A    between atoms: _109  and  _110
REMARK   50  A    between atoms: _110  and  _111
REMARK   51  A    between atoms: _111  and  _112
REMARK   52  A    between atoms: _121  and  _123
REMARK   53  A    between atoms: _123  and  _124
REMARK   54  A    between atoms: _123  and  _126
REMARK   55  A    between atoms: _126  and  _127
REMARK   56  A    between atoms: _130  and  _132
REMARK   57  A    between atoms: _132  and  _133
REMARK   58  A    between atoms: _132  and  _135
REMARK   59  A    between atoms: _135  and  _136
REMARK   60  A    between atoms: _139  and  _141
REMARK   61  A    between atoms: _141  and  _142
REMARK   62  A    between atoms: _141  and  _144
REMARK   63  A    between atoms: _144  and  _145
REMARK   64  A    between atoms: _145  and  _146
REMARK   65  A    between atoms: _146  and  _147
REMARK   66  A    between atoms: _156  and  _158
REMARK   67  A    between atoms: _158  and  _159
REMARK   68  A    between atoms: _158  and  _161
REMARK   69  A    between atoms: _161  and  _162
REMARK   70  A    between atoms: _165  and  _167
REMARK   71  A    between atoms: _167  and  _168
REMARK   72  A    between atoms: _167  and  _170
REMARK   73  A    between atoms: _170  and  _171
REMARK   74  A    between atoms: _171  and  _172
REMARK   75  A    between atoms: _177  and  _179
REMARK   76  A    between atoms: _179  and  _180
REMARK   77  A    between atoms: _179  and  _182
REMARK   78  A    between atoms: _182  and  _183
REMARK   79  A    between atoms: _186  and  _188
REMARK   80  A    between atoms: _188  and  _189
REMARK   81  A    between atoms: _188  and  _191
REMARK   82  A    between atoms: _191  and  _192
REMARK   83  A    between atoms: _195  and  _197
REMARK   84  A    between atoms: _197  and  _198
REMARK   85  A    between atoms: _197  and  _200
REMARK   86  A    between atoms: _203  and  _205
REMARK   87  A    between atoms: _205  and  _206
REMARK   88  A    between atoms: _205  and  _208
REMARK   89  A    between atoms: _208  and  _209
REMARK   90  A    between atoms: _209  and  _210
REMARK   91  A    between atoms: _210  and  _211
REMARK   92  A    between atoms: _220  and  _222
REMARK   93  A    between atoms: _222  and  _223
REMARK   94  A    between atoms: _222  and  _225
REMARK   95  A    between atoms: _225  and  _226
REMARK   96  A    between atoms: _229  and  _231
REMARK   97  A    between atoms: _231  and  _232
REMARK   98  A    between atoms: _231  and  _234
REMARK   99  A    between atoms: _234  and  _235
REMARK  100  A    between atoms: _237  and  _239
REMARK  101  A    between atoms: _239  and  _240
REMARK  102  A    between atoms: _239  and  _242
REMARK  103  A    between atoms: _245  and  _247
REMARK  104  A    between atoms: _247  and  _248
REMARK  105  A    between atoms: _247  and  _250
REMARK  106  A    between atoms: _252  and  _254
REMARK  107  A    between atoms: _254  and  _255
REMARK  108  A    between atoms: _254  and  _257
REMARK  109  A    between atoms: _257  and  _258
REMARK  110  A    between atoms: _263  and  _265
REMARK  111  A    between atoms: _265  and  _266
REMARK  112  A    between atoms: _269  and  _271
REMARK  113  A    between atoms: _271  and  _272
REMARK  114  A    between atoms: _274  and  _276
REMARK  115  A    between atoms: _276  and  _277
REMARK  116  A    between atoms: _276  and  _279
REMARK  117  A    between atoms: _279  and  _280
REMARK  118  A    between atoms: _283  and  _285
REMARK  119  A    between atoms: _285  and  _286
REMARK  120  A    between atoms: _288  and  _290
REMARK  121  A    between atoms: _290  and  _291
REMARK  122  A    between atoms: _290  and  _293
REMARK  123  A    between atoms: _293  and  _294
REMARK  124  A    between atoms: _297  and  _299
REMARK  125  A    between atoms: _299  and  _300
REMARK  126  A    between atoms: _299  and  _302
REMARK  127  A    between atoms: _302  and  _303
REMARK  128  A    between atoms: _306  and  _308
REMARK  129  A    between atoms: _308  and  _309
REMARK  130  A    between atoms: _308  and  _311
REMARK  131  A    between atoms: _311  and  _312
REMARK  132  A    between atoms: _314  and  _316
REMARK  133  A    between atoms: _316  and  _317
REMARK  134  A    between atoms: _316  and  _319
REMARK  135  A    between atoms: _319  and  _320
REMARK  136  A    between atoms: _323  and  _325
REMARK  137  A    between atoms: _325  and  _326
REMARK  138  A    between atoms: _325  and  _328
REMARK  139  A    between atoms: _331  and  _333
REMARK  140  A    between atoms: _333  and  _334
REMARK  141  A    between atoms: _333  and  _336
REMARK  142  A    between atoms: _336  and  _337
REMARK  143  A    between atoms: _342  and  _344
REMARK  144  A    between atoms: _344  and  _345
REMARK  145  A    between atoms: _347  and  _349
REMARK  146  A    between atoms: _349  and  _350
REMARK  147  A    between atoms: _349  and  _352
REMARK  148  A    between atoms: _352  and  _353
REMARK  149  A    between atoms: _353  and  _354
REMARK  150  A    between atoms: _354  and  _355
REMARK  151  A    between atoms: _364  and  _366
REMARK  152  A    between atoms: _366  and  _367
REMARK  153  A    between atoms: _366  and  _369
REMARK  154  A    between atoms: _369  and  _370
REMARK  155  A    between atoms: _370  and  _371
REMARK  156  A    between atoms: _373  and  _375
REMARK  157  A    between atoms: _375  and  _376
REMARK  158  A    between atoms: _375  and  _378
REMARK  159  A    between atoms: _378  and  _379
REMARK  160  A    between atoms: _382  and  _384
REMARK  161  A    between atoms: _384  and  _385
REMARK  162  A    between atoms: _387  and  _389
REMARK  163  A    between atoms: _389  and  _390
REMARK  164  A    between atoms: _389  and  _392
REMARK  165  A    between atoms: _392  and  _393
REMARK  166  A    between atoms: _395  and  _397
REMARK  167  A    between atoms: _397  and  _398
REMARK  168  A    between atoms: _397  and  _400
REMARK  169  A    between atoms: _403  and  _405
REMARK  170  A    between atoms: _405  and  _406
REMARK  171  A    between atoms: _408  and  _410
REMARK  172  A    between atoms: _410  and  _411
REMARK  173  A    between atoms: _413  and  _415
REMARK  174  A    between atoms: _415  and  _416
REMARK  175  A    between atoms: _415  and  _418
REMARK  176  A    between atoms: _418  and  _419
REMARK  177  A    between atoms: _422  and  _424
REMARK  178  A    between atoms: _424  and  _425
REMARK  179  A    between atoms: _424  and  _427
REMARK  180  A    between atoms: _427  and  _428
REMARK  181  A    between atoms: _428  and  _429
REMARK  182  A    between atoms: _431  and  _433
REMARK  183  A    between atoms: _433  and  _434
REMARK  184  A    between atoms: _436  and  _438
REMARK  185  A    between atoms: _438  and  _439
REMARK  186  A    between atoms: _438  and  _441
REMARK  187  A    between atoms: _441  and  _442
REMARK  188  A    between atoms: _446  and  _447
REMARK  189  A    between atoms: _452  and  _454
REMARK  190  A    between atoms: _454  and  _455
REMARK  191  A    between atoms: _454  and  _457
REMARK  192  A    between atoms: _457  and  _458
REMARK  193  A    between atoms: _463  and  _465
REMARK  194  A    between atoms: _465  and  _466
REMARK  195  A    between atoms: _465  and  _468
REMARK  196  A    between atoms: _468  and  _469
REMARK  197  A    between atoms: _474  and  _475
REMARK  198  A    between atoms: _477  and  _479
REMARK  199  A    between atoms: _479  and  _480
REMARK  200  A    between atoms: _479  and  _482
REMARK  201  A    between atoms: _484  and  _486
REMARK  202  A    between atoms: _486  and  _487
REMARK  203  A    between atoms: _486  and  _489
REMARK  204  A    between atoms: _489  and  _490
REMARK  205  A    between atoms: _490  and  _491
REMARK  206  A    between atoms: _491  and  _492
REMARK  207  A    between atoms: _492  and  _493
REMARK  208  A    between atoms: _497  and  _499
REMARK  209  A    between atoms: _499  and  _500
REMARK  210  A    between atoms: _499  and  _502
REMARK  211  A    between atoms: _502  and  _503
REMARK  212  A    between atoms: _503  and  _504
REMARK  213  A    between atoms: _507  and  _509
REMARK  214  A    between atoms: _509  and  _510
REMARK  215  A    between atoms: _509  and  _512
REMARK  216  A    between atoms: _514  and  _516
REMARK  217  A    between atoms: _516  and  _517
REMARK  218  A    between atoms: _520  and  _521
REMARK  219  A    between atoms: _526  and  _528
REMARK  220  A    between atoms: _528  and  _529
REMARK  221  A    between atoms: _528  and  _531
REMARK  222  A    between atoms: _534  and  _536
REMARK  223  A    between atoms: _536  and  _537
REMARK  224  A    between atoms: _536  and  _539
REMARK  225  A    between atoms: _539  and  _540
REMARK  226  A    between atoms: _543  and  _545
REMARK  227  A    between atoms: _545  and  _546
REMARK  228  A    between atoms: _545  and  _548
REMARK  229  A    between atoms: _548  and  _549
REMARK  230  A    between atoms: _555  and  _557
REMARK  231  A    between atoms: _557  and  _558
REMARK  232  A    between atoms: _557  and  _560
REMARK  233  A    between atoms: _560  and  _561
REMARK  234  A    between atoms: _561  and  _562
REMARK  235  A    between atoms: _564  and  _566
REMARK  236  A    between atoms: _566  and  _567
REMARK  237  A    between atoms: _566  and  _569
REMARK  238  A    between atoms: _569  and  _570
REMARK  239  A    between atoms: _570  and  _571
REMARK  240  A    between atoms: _574  and  _576
REMARK  241  A    between atoms: _576  and  _577
REMARK  242  A    between atoms: _576  and  _579
REMARK  243  A    between atoms: _579  and  _580
REMARK  244  A    between atoms: _580  and  _581
REMARK  245  A    between atoms: _581  and  _582
REMARK  246  A    between atoms: _582  and  _583
REMARK  247  A    between atoms: _587  and  _589
REMARK  248  A    between atoms: _589  and  _590
REMARK  249  A    between atoms: _589  and  _592
REMARK  250  A    between atoms: _592  and  _593
REMARK  251  A    between atoms: _598  and  _599
REMARK  252  A    between atoms: _601  and  _603
REMARK  253  A    between atoms: _603  and  _604
REMARK  254  A    between atoms: _603  and  _606
REMARK  255  A    between atoms: _606  and  _607
REMARK  256  A    between atoms: _610  and  _612
REMARK  257  A    between atoms: _612  and  _613
REMARK  258  A    between atoms: _612  and  _615
REMARK  259  A    between atoms: _615  and  _616
REMARK  260  A    between atoms: _621  and  _623
REMARK  261  A    between atoms: _623  and  _624
REMARK  262  A    between atoms: _623  and  _626
REMARK  263  A    between atoms: _626  and  _627
REMARK  264  A    between atoms: _629  and  _631
REMARK  265  A    between atoms: _631  and  _632
REMARK  266  A    between atoms: _631  and  _634
REMARK  267  A    between atoms: _634  and  _635
REMARK  268  A    between atoms: _635  and  _636
REMARK  269  A    between atoms: _636  and  _637
REMARK  270  A    between atoms: _637  and  _638
REMARK  271  A    between atoms: _642  and  _644
REMARK  272  A    between atoms: _644  and  _645
REMARK  273  A    between atoms: _644  and  _647
REMARK  274  A    between atoms: _647  and  _648
REMARK  275  A    between atoms: _648  and  _649
REMARK  276  A    between atoms: _654  and  _656
REMARK  277  A    between atoms: _656  and  _657
REMARK  278  A    between atoms: _656  and  _659
REMARK  279  A    between atoms: _662  and  _664
REMARK  280  A    between atoms: _664  and  _665
REMARK  281  A    between atoms: _664  and  _667
REMARK  282  A    between atoms: _667  and  _668
REMARK  283  A    between atoms: _674  and  _676
REMARK  284  A    between atoms: _676  and  _677
REMARK  285  A    between atoms: _680  and  _682
REMARK  286  A    between atoms: _682  and  _683
REMARK  287  A    between atoms: _682  and  _685
REMARK  288  A    between atoms: _685  and  _686
REMARK  289  A    between atoms: _689  and  _691
REMARK  290  A    between atoms: _691  and  _692
REMARK  291  A    between atoms: _691  and  _694
REMARK  292  A    between atoms: _694  and  _695
REMARK  293  A    between atoms: _695  and  _696
REMARK  294  A    between atoms: _696  and  _697
REMARK  295  A    between atoms: _706  and  _708
REMARK  296  A    between atoms: _708  and  _709
REMARK  297  A    between atoms: _708  and  _711
REMARK  298  A    between atoms: _711  and  _712
REMARK  299  A    between atoms: _718  and  _720
REMARK  300  A    between atoms: _720  and  _721
REMARK  301  A    between atoms: _720  and  _723
REMARK  302  A    between atoms: _723  and  _724
REMARK  303  A    between atoms: _727  and  _729
REMARK  304  A    between atoms: _729  and  _730
REMARK  305  A    between atoms: _729  and  _732
REMARK  306  A    between atoms: _732  and  _733
REMARK  307  A    between atoms: _738  and  _739
REMARK  308  A    between atoms: _741  and  _743
REMARK  309  A    between atoms: _743  and  _744
REMARK  310  A    between atoms: _747  and  _749
REMARK  311  A    between atoms: _749  and  _750
REMARK  312  A    between atoms: _749  and  _752
REMARK  313  A    between atoms: _752  and  _753
REMARK  314  A    between atoms: _753  and  _754
REMARK  315  A    between atoms: _756  and  _758
REMARK  316  A    between atoms: _758  and  _759
REMARK  317  A    between atoms: _758  and  _761
REMARK  318  A    between atoms: _761  and  _762
REMARK  319  A    between atoms: _767  and  _769
REMARK  320  A    between atoms: _769  and  _770
REMARK  321  A    between atoms: _769  and  _772
REMARK  322  A    between atoms: _772  and  _773
REMARK  323  A    between atoms: _773  and  _774
REMARK  324  A    between atoms: _774  and  _775
REMARK  325  A    between atoms: _784  and  _786
REMARK  326  A    between atoms: _786  and  _787
REMARK  327  A    between atoms: _786  and  _789
REMARK  328  A    between atoms: _789  and  _790
REMARK  329  A    between atoms: _790  and  _791
REMARK  330  A    between atoms: _794  and  _796
REMARK  331  A    between atoms: _796  and  _797
REMARK  332  A    between atoms: _796  and  _799
REMARK  333  A    between atoms: _802  and  _804
REMARK  334  A    between atoms: _804  and  _805
REMARK  335  A    between atoms: _804  and  _807
REMARK  336  A    between atoms: _807  and  _808
REMARK                            x       y       z     vdW  Elec       q    Type
REMARK                         _______ _______ _______ _____ _____    ______ ____
ROOT
ATOM      1  O   HOH     1       8.484  16.073 -19.761  0.00  0.00    +0.000 OA
ENDROOT
TORSDOF 0
REMARK  Name = ../refined-set-2016/1i5r/1i5r_pocket.pdb
REMARK  336 active torsions:
REMARK  status: ('A' for Active; 'I' for Inactive)
REMARK    1  A    between atoms: _1  and  _3
REMARK    2  A    between atoms: _3  and  _4
REMARK    3  A    between atoms: _3  and  _6
REMARK    4  A    between atoms: _6  and  _7
REMARK    5  A    between atoms: _10  and  _12
REMARK    6  A    between atoms: _12  and  _13
REMARK    7  A    between atoms: _12  and  _15
REMARK    8  A    between atoms: _15  and  _16
REMARK    9  A    between atoms: _19  and  _21
REMARK   10  A    between atoms: _21  and  _22
REMARK   11  A    between atoms: _24  and  _26
REMARK   12  A    between atoms: _26  and  _27
REMARK   13  A    between atoms: _26  and  _29
REMARK   14  A    between atoms: _31  and  _33
REMARK   15  A    between atoms: _33  and  _34
REMARK   16  A    between atoms: _33  and  _36
REMARK   17  A    between atoms: _36  and  _37
REMARK   18  A    between atoms: _39  and  _41
REMARK   19  A    between atoms: _41  and  _42
REMARK   20  A    between atoms: _41  and  _44
REMARK   21  A    between atoms: _44  and  _45
REMARK   22  A    between atoms: _47  and  _49
REMARK   23  A    between atoms: _49  and  _50
REMARK   24  A    between atoms: _52  and  _54
REMARK   25  A    between atoms: _54  and  _55
REMARK   26  A    between atoms: _54  and  _57
REMARK   27  A    between atoms: _57  and  _58
REMARK   28  A    between atoms: _61  and  _63
REMARK   29  A    between atoms: _63  and  _64
REMARK   30  A    between atoms: _66  and  _68
REMARK   31  A    between atoms: _68  and  _69
REMARK   32  A    between atoms: _68  and  _71
REMARK   33  A    between atoms: _71  and  _72
REMARK   34  A    between atoms: _75  and  _77
REMARK   35  A    between atoms: _77  and  _78
REMARK   36  A    between atoms: _77  and  _80
REMARK   37  A    between atoms: _80  and  _81
REMARK   38  A    between atoms: _86  and  _88
REMARK   39  A    between atoms: _88  and  _89
REMARK   40  A    between atoms: _88  and  _91
REMARK   41  A    between atoms: _91  and  _92
REMARK   42  A    between atoms: _95  and  _97
REMARK   43  A    between atoms: _97  and  _98
REMARK   44  A    between atoms: _97  and  _100
REMARK   45  A    between atoms: _100  and  _101
REMARK   46  A    between atoms: _104  and  _106
REMARK   47  A    between atoms: _106  and  _107
REMARK   48  A    between atoms: _106  and  _109
REMARK   49  A    between atoms: _109  and  _110
REMARK   50  A    between atoms: _110  and  _111
REMARK   51  A    between atoms: _111  and  _112
REMARK   52  A    between atoms: _121  and  _123
REMARK   53  A    between atoms: _123  and  _124
REMARK   54  A    between atoms: _123  and  _126
REMARK   55  A    between atoms: _126  and  _127
REMARK   56  A    between atoms: _130  and  _132
REMARK   57  A    between atoms: _132  and  _133
REMARK   58  A    between atoms: _132  and  _135
REMARK   59  A    between atoms: _135  and  _136
REMARK   60  A    between atoms: _139  and  _141
REMARK   61  A    between atoms: _141  and  _142
REMARK   62  A    between atoms: _141  and  _144
REMARK   63  A    between atoms: _144  and  _145
REMARK   64  A    between atoms: _145  and  _146
REMARK   65  A    between atoms: _146  and  _147
REMARK   66  A    between atoms: _156  and  _158
REMARK   67  A    between atoms: _158  and  _159
REMARK   68  A    between atoms: _158  and  _161
REMARK   69  A    between atoms: _161  and  _162
REMARK   70  A    between atoms: _165  and  _167
REMARK   71  A    between atoms: _167  and  _168
REMARK   72  A    between atoms: _167  and  _170
REMARK   73  A    between atoms: _170  and  _171
REMARK   74  A    between atoms: _171  and  _172
REMARK   75  A    between atoms: _177  and  _179
REMARK   76  A    between atoms: _179  and  _180
REMARK   77  A    between atoms: _179  and  _182
REMARK   78  A    between atoms: _182  and  _183
REMARK   79  A    between atoms: _186  and  _188
REMARK   80  A    between atoms: _188  and  _189
REMARK   81  A    between atoms: _188  and  _191
REMARK   82  A    between atoms: _191  and  _192
REMARK   83  A    between atoms: _195  and  _197
REMARK   84  A    between atoms: _197  and  _198
REMARK   85  A    between atoms: _197  and  _200
REMARK   86  A    between atoms: _203  and  _205
REMARK   87  A    between atoms: _205  and  _206
REMARK   88  A    between atoms: _205  and  _208
REMARK   89  A    between atoms: _208  and  _209
REMARK   90  A    between atoms: _209  and  _210
REMARK   91  A    between atoms: _210  and  _211
REMARK   92  A    between atoms: _220  and  _222
REMARK   93  A    between atoms: _222  and  _223
REMARK   94  A    between atoms: _222  and  _225
REMARK   95  A    between atoms: _225  and  _226
REMARK   96  A    between atoms: _229  and  _231
REMARK   97  A    between atoms: _231  and  _232
REMARK   98  A    between atoms: _231  and  _234
REMARK   99  A    between atoms: _234  and  _235
REMARK  100  A    between atoms: _237  and  _239
REMARK  101  A    between atoms: _239  and  _240
REMARK  102  A    between atoms: _239  and  _242
REMARK  103  A    between atoms: _245  and  _247
REMARK  104  A    between atoms: _247  and  _248
REMARK  105  A    between atoms: _247  and  _250
REMARK  106  A    between atoms: _252  and  _254
REMARK  107  A    between atoms: _254  and  _255
REMARK  108  A    between atoms: _254  and  _257
REMARK  109  A    between atoms: _257  and  _258
REMARK  110  A    between atoms: _263  and  _265
REMARK  111  A    between atoms: _265  and  _266
REMARK  112  A    between atoms: _269  and  _271
REMARK  113  A    between atoms: _271  and  _272
REMARK  114  A    between atoms: _274  and  _276
REMARK  115  A    between atoms: _276  and  _277
REMARK  116  A    between atoms: _276  and  _279
REMARK  117  A    between atoms: _279  and  _280
REMARK  118  A    between atoms: _283  and  _285
REMARK  119  A    between atoms: _285  and  _286
REMARK  120  A    between atoms: _288  and  _290
REMARK  121  A    between atoms: _290  and  _291
REMARK  122  A    between atoms: _290  and  _293
REMARK  123  A    between atoms: _293  and  _294
REMARK  124  A    between atoms: _297  and  _299
REMARK  125  A    between atoms: _299  and  _300
REMARK  126  A    between atoms: _299  and  _302
REMARK  127  A    between atoms: _302  and  _303
REMARK  128  A    between atoms: _306  and  _308
REMARK  129  A    between atoms: _308  and  _309
REMARK  130  A    between atoms: _308  and  _311
REMARK  131  A    between atoms: _311  and  _312
REMARK  132  A    between atoms: _314  and  _316
REMARK  133  A    between atoms: _316  and  _317
REMARK  134  A    between atoms: _316  and  _319
REMARK  135  A    between atoms: _319  and  _320
REMARK  136  A    between atoms: _323  and  _325
REMARK  137  A    between atoms: _325  and  _326
REMARK  138  A    between atoms: _325  and  _328
REMARK  139  A    between atoms: _331  and  _333
REMARK  140  A    between atoms: _333  and  _334
REMARK  141  A    between atoms: _333  and  _336
REMARK  142  A    between atoms: _336  and  _337
REMARK  143  A    between atoms: _342  and  _344
REMARK  144  A    between atoms: _344  and  _345
REMARK  145  A    between atoms: _347  and  _349
REMARK  146  A    between atoms: _349  and  _350
REMARK  147  A    between atoms: _349  and  _352
REMARK  148  A    between atoms: _352  and  _353
REMARK  149  A    between atoms: _353  and  _354
REMARK  150  A    between atoms: _354  and  _355
REMARK  151  A    between atoms: _364  and  _366
REMARK  152  A    between atoms: _366  and  _367
REMARK  153  A    between atoms: _366  and  _369
REMARK  154  A    between atoms: _369  and  _370
REMARK  155  A    between atoms: _370  and  _371
REMARK  156  A    between atoms: _373  and  _375
REMARK  157  A    between atoms: _375  and  _376
REMARK  158  A    between atoms: _375  and  _378
REMARK  159  A    between atoms: _378  and  _379
REMARK  160  A    between atoms: _382  and  _384
REMARK  161  A    between atoms: _384  and  _385
REMARK  162  A    between atoms: _387  and  _389
REMARK  163  A    between atoms: _389  and  _390
REMARK  164  A    between atoms: _389  and  _392
REMARK  165  A    between atoms: _392  and  _393
REMARK  166  A    between atoms: _395  and  _397
REMARK  167  A    between atoms: _397  and  _398
REMARK  168  A    between atoms: _397  and  _400
REMARK  169  A    between atoms: _403  and  _405
REMARK  170  A    between atoms: _405  and  _406
REMARK  171  A    between atoms: _408  and  _410
REMARK  172  A    between atoms: _410  and  _411
REMARK  173  A    between atoms: _413  and  _415
REMARK  174  A    between atoms: _415  and  _416
REMARK  175  A    between atoms: _415  and  _418
REMARK  176  A    between atoms: _418  and  _419
REMARK  177  A    between atoms: _422  and  _424
REMARK  178  A    between atoms: _424  and  _425
REMARK  179  A    between atoms: _424  and  _427
REMARK  180  A    between atoms: _427  and  _428
REMARK  181  A    between atoms: _428  and  _429
REMARK  182  A    between atoms: _431  and  _433
REMARK  183  A    between atoms: _433  and  _434
REMARK  184  A    between atoms: _436  and  _438
REMARK  185  A    between atoms: _438  and  _439
REMARK  186  A    between atoms: _438  and  _441
REMARK  187  A    between atoms: _441  and  _442
REMARK  188  A    between atoms: _446  and  _447
REMARK  189  A    between atoms: _452  and  _454
REMARK  190  A    between atoms: _454  and  _455
REMARK  191  A    between atoms: _454  and  _457
REMARK  192  A    between atoms: _457  and  _458
REMARK  193  A    between atoms: _463  and  _465
REMARK  194  A    between atoms: _465  and  _466
REMARK  195  A    between atoms: _465  and  _468
REMARK  196  A    between atoms: _468  and  _469
REMARK  197  A    between atoms: _474  and  _475
REMARK  198  A    between atoms: _477  and  _479
REMARK  199  A    between atoms: _479  and  _480
REMARK  200  A    between atoms: _479  and  _482
REMARK  201  A    between atoms: _484  and  _486
REMARK  202  A    between atoms: _486  and  _487
REMARK  203  A    between atoms: _486  and  _489
REMARK  204  A    between atoms: _489  and  _490
REMARK  205  A    between atoms: _490  and  _491
REMARK  206  A    between atoms: _491  and  _492
REMARK  207  A    between atoms: _492  and  _493
REMARK  208  A    between atoms: _497  and  _499
REMARK  209  A    between atoms: _499  and  _500
REMARK  210  A    between atoms: _499  and  _502
REMARK  211  A    between atoms: _502  and  _503
REMARK  212  A    between atoms: _503  and  _504
REMARK  213  A    between atoms: _507  and  _509
REMARK  214  A    between atoms: _509  and  _510
REMARK  215  A    between atoms: _509  and  _512
REMARK  216  A    between atoms: _514  and  _516
REMARK  217  A    between atoms: _516  and  _517
REMARK  218  A    between atoms: _520  and  _521
REMARK  219  A    between atoms: _526  and  _528
REMARK  220  A    between atoms: _528  and  _529
REMARK  221  A    between atoms: _528  and  _531
REMARK  222  A    between atoms: _534  and  _536
REMARK  223  A    between atoms: _536  and  _537
REMARK  224  A    between atoms: _536  and  _539
REMARK  225  A    between atoms: _539  and  _540
REMARK  226  A    between atoms: _543  and  _545
REMARK  227  A    between atoms: _545  and  _546
REMARK  228  A    between atoms: _545  and  _548
REMARK  229  A    between atoms: _548  and  _549
REMARK  230  A    between atoms: _555  and  _557
REMARK  231  A    between atoms: _557  and  _558
REMARK  232  A    between atoms: _557  and  _560
REMARK  233  A    between atoms: _560  and  _561
REMARK  234  A    between atoms: _561  and  _562
REMARK  235  A    between atoms: _564  and  _566
REMARK  236  A    between atoms: _566  and  _567
REMARK  237  A    between atoms: _566  and  _569
REMARK  238  A    between atoms: _569  and  _570
REMARK  239  A    between atoms: _570  and  _571
REMARK  240  A    between atoms: _574  and  _576
REMARK  241  A    between atoms: _576  and  _577
REMARK  242  A    between atoms: _576  and  _579
REMARK  243  A    between atoms: _579  and  _580
REMARK  244  A    between atoms: _580  and  _581
REMARK  245  A    between atoms: _581  and  _582
REMARK  246  A    between atoms: _582  and  _583
REMARK  247  A    between atoms: _587  and  _589
REMARK  248  A    between atoms: _589  and  _590
REMARK  249  A    between atoms: _589  and  _592
REMARK  250  A    between atoms: _592  and  _593
REMARK  251  A    between atoms: _598  and  _599
REMARK  252  A    between atoms: _601  and  _603
REMARK  253  A    between atoms: _603  and  _604
REMARK  254  A    between atoms: _603  and  _606
REMARK  255  A    between atoms: _606  and  _607
REMARK  256  A    between atoms: _610  and  _612
REMARK  257  A    between atoms: _612  and  _613
REMARK  258  A    between atoms: _612  and  _615
REMARK  259  A    between atoms: _615  and  _616
REMARK  260  A    between atoms: _621  and  _623
REMARK  261  A    between atoms: _623  and  _624
REMARK  262  A    between atoms: _623  and  _626
REMARK  263  A    between atoms: _626  and  _627
REMARK  264  A    between atoms: _629  and  _631
REMARK  265  A    between atoms: _631  and  _632
REMARK  266  A    between atoms: _631  and  _634
REMARK  267  A    between atoms: _634  and  _635
REMARK  268  A    between atoms: _635  and  _636
REMARK  269  A    between atoms: _636  and  _637
REMARK  270  A    between atoms: _637  and  _638
REMARK  271  A    between atoms: _642  and  _644
REMARK  272  A    between atoms: _644  and  _645
REMARK  273  A    between atoms: _644  and  _647
REMARK  274  A    between atoms: _647  and  _648
REMARK  275  A    between atoms: _648  and  _649
REMARK  276  A    between atoms: _654  and  _656
REMARK  277  A    between atoms: _656  and  _657
REMARK  278  A    between atoms: _656  and  _659
REMARK  279  A    between atoms: _662  and  _664
REMARK  280  A    between atoms: _664  and  _665
REMARK  281  A    between atoms: _664  and  _667
REMARK  282  A    between atoms: _667  and  _668
REMARK  283  A    between atoms: _674  and  _676
REMARK  284  A    between atoms: _676  and  _677
REMARK  285  A    between atoms: _680  and  _682
REMARK  286  A    between atoms: _682  and  _683
REMARK  287  A    between atoms: _682  and  _685
REMARK  288  A    between atoms: _685  and  _686
REMARK  289  A    between atoms: _689  and  _691
REMARK  290  A    between atoms: _691  and  _692
REMARK  291  A    between atoms: _691  and  _694
REMARK  292  A    between atoms: _694  and  _695
REMARK  293  A    between atoms: _695  and  _696
REMARK  294  A    between atoms: _696  and  _697
REMARK  295  A    between atoms: _706  and  _708
REMARK  296  A    between atoms: _708  and  _709
REMARK  297  A    between atoms: _708  and  _711
REMARK  298  A    between atoms: _711  and  _712
REMARK  299  A    between atoms: _718  and  _720
REMARK  300  A    between atoms: _720  and  _721
REMARK  301  A    between atoms: _720  and  _723
REMARK  302  A    between atoms: _723  and  _724
REMARK  303  A    between atoms: _727  and  _729
REMARK  304  A    between atoms: _729  and  _730
REMARK  305  A    between atoms: _729  and  _732
REMARK  306  A    between atoms: _732  and  _733
REMARK  307  A    between atoms: _738  and  _739
REMARK  308  A    between atoms: _741  and  _743
REMARK  309  A    between atoms: _743  and  _744
REMARK  310  A    between atoms: _747  and  _749
REMARK  311  A    between atoms: _749  and  _750
REMARK  312  A    between atoms: _749  and  _752
REMARK  313  A    between atoms: _752  and  _753
REMARK  314  A    between atoms: _753  and  _754
REMARK  315  A    between atoms: _756  and  _758
REMARK  316  A    between atoms: _758  and  _759
REMARK  317  A    between atoms: _758  and  _761
REMARK  318  A    between atoms: _761  and  _762
REMARK  319  A    between atoms: _767  and  _769
REMARK  320  A    between atoms: _769  and  _770
REMARK  321  A    between atoms: _769  and  _772
REMARK  322  A    between atoms: _772  and  _773
REMARK  323  A    between atoms: _773  and  _774
REMARK  324  A    between atoms: _774  and  _775
REMARK  325  A    between atoms: _784  and  _786
REMARK  326  A    between atoms: _786  and  _787
REMARK  327  A    between atoms: _786  and  _789
REMARK  328  A    between atoms: _789  and  _790
REMARK  329  A    between atoms: _790  and  _791
REMARK  330  A    between atoms: _794  and  _796
REMARK  331  A    between atoms: _796  and  _797
REMARK  332  A    between atoms: _796  and  _799
REMARK  333  A    between atoms: _802  and  _804
REMARK  334  A    between atoms: _804  and  _805
REMARK  335  A    between atoms: _804  and  _807
REMARK  336  A    between atoms: _807  and  _808
REMARK                            x       y       z     vdW  Elec       q    Type
REMARK                         _______ _______ _______ _____ _____    ______ ____
ROOT
ATOM      1  O   HOH     1      10.628 -16.200   1.359  0.00  0.00    +0.000 OA
ENDROOT
TORSDOF 0
REMARK  Name = ../refined-set-2016/1i5r/1i5r_pocket.pdb
REMARK  336 active torsions:
REMARK  status: ('A' for Active; 'I' for Inactive)
REMARK    1  A    between atoms: _1  and  _3
REMARK    2  A    between atoms: _3  and  _4
REMARK    3  A    between atoms: _3  and  _6
REMARK    4  A    between atoms: _6  and  _7
REMARK    5  A    between atoms: _10  and  _12
REMARK    6  A    between atoms: _12  and  _13
REMARK    7  A    between atoms: _12  and  _15
REMARK    8  A    between atoms: _15  and  _16
REMARK    9  A    between atoms: _19  and  _21
REMARK   10  A    between atoms: _21  and  _22
REMARK   11  A    between atoms: _24  and  _26
REMARK   12  A    between atoms: _26  and  _27
REMARK   13  A    between atoms: _26  and  _29
REMARK   14  A    between atoms: _31  and  _33
REMARK   15  A    between atoms: _33  and  _34
REMARK   16  A    between atoms: _33  and  _36
REMARK   17  A    between atoms: _36  and  _37
REMARK   18  A    between atoms: _39  and  _41
REMARK   19  A    between atoms: _41  and  _42
REMARK   20  A    between atoms: _41  and  _44
REMARK   21  A    between atoms: _44  and  _45
REMARK   22  A    between atoms: _47  and  _49
REMARK   23  A    between atoms: _49  and  _50
REMARK   24  A    between atoms: _52  and  _54
REMARK   25  A    between atoms: _54  and  _55
REMARK   26  A    between atoms: _54  and  _57
REMARK   27  A    between atoms: _57  and  _58
REMARK   28  A    between atoms: _61  and  _63
REMARK   29  A    between atoms: _63  and  _64
REMARK   30  A    between atoms: _66  and  _68
REMARK   31  A    between atoms: _68  and  _69
REMARK   32  A    between atoms: _68  and  _71
REMARK   33  A    between atoms: _71  and  _72
REMARK   34  A    between atoms: _75  and  _77
REMARK   35  A    between atoms: _77  and  _78
REMARK   36  A    between atoms: _77  and  _80
REMARK   37  A    between atoms: _80  and  _81
REMARK   38  A    between atoms: _86  and  _88
REMARK   39  A    between atoms: _88  and  _89
REMARK   40  A    between atoms: _88  and  _91
REMARK   41  A    between atoms: _91  and  _92
REMARK   42  A    between atoms: _95  and  _97
REMARK   43  A    between atoms: _97  and  _98
REMARK   44  A    between atoms: _97  and  _100
REMARK   45  A    between atoms: _100  and  _101
REMARK   46  A    between atoms: _104  and  _106
REMARK   47  A    between atoms: _106  and  _107
REMARK   48  A    between atoms: _106  and  _109
REMARK   49  A    between atoms: _109  and  _110
REMARK   50  A    between atoms: _110  and  _111
REMARK   51  A    between atoms: _111  and  _112
REMARK   52  A    between atoms: _121  and  _123
REMARK   53  A    between atoms: _123  and  _124
REMARK   54  A    between atoms: _123  and  _126
REMARK   55  A    between atoms: _126  and  _127
REMARK   56  A    between atoms: _130  and  _132
REMARK   57  A    between atoms: _132  and  _133
REMARK   58  A    between atoms: _132  and  _135
REMARK   59  A    between atoms: _135  and  _136
REMARK   60  A    between atoms: _139  and  _141
REMARK   61  A    between atoms: _141  and  _142
REMARK   62  A    between atoms: _141  and  _144
REMARK   63  A    between atoms: _144  and  _145
REMARK   64  A    between atoms: _145  and  _146
REMARK   65  A    between atoms: _146  and  _147
REMARK   66  A    between atoms: _156  and  _158
REMARK   67  A    between atoms: _158  and  _159
REMARK   68  A    between atoms: _158  and  _161
REMARK   69  A    between atoms: _161  and  _162
REMARK   70  A    between atoms: _165  and  _167
REMARK   71  A    between atoms: _167  and  _168
REMARK   72  A    between atoms: _167  and  _170
REMARK   73  A    between atoms: _170  and  _171
REMARK   74  A    between atoms: _171  and  _172
REMARK   75  A    between atoms: _177  and  _179
REMARK   76  A    between atoms: _179  and  _180
REMARK   77  A    between atoms: _179  and  _182
REMARK   78  A    between atoms: _182  and  _183
REMARK   79  A    between atoms: _186  and  _188
REMARK   80  A    between atoms: _188  and  _189
REMARK   81  A    between atoms: _188  and  _191
REMARK   82  A    between atoms: _191  and  _192
REMARK   83  A    between atoms: _195  and  _197
REMARK   84  A    between atoms: _197  and  _198
REMARK   85  A    between atoms: _197  and  _200
REMARK   86  A    between atoms: _203  and  _205
REMARK   87  A    between atoms: _205  and  _206
REMARK   88  A    between atoms: _205  and  _208
REMARK   89  A    between atoms: _208  and  _209
REMARK   90  A    between atoms: _209  and  _210
REMARK   91  A    between atoms: _210  and  _211
REMARK   92  A    between atoms: _220  and  _222
REMARK   93  A    between atoms: _222  and  _223
REMARK   94  A    between atoms: _222  and  _225
REMARK   95  A    between atoms: _225  and  _226
REMARK   96  A    between atoms: _229  and  _231
REMARK   97  A    between atoms: _231  and  _232
REMARK   98  A    between atoms: _231  and  _234
REMARK   99  A    between atoms: _234  and  _235
REMARK  100  A    between atoms: _237  and  _239
REMARK  101  A    between atoms: _239  and  _240
REMARK  102  A    between atoms: _239  and  _242
REMARK  103  A    between atoms: _245  and  _247
REMARK  104  A    between atoms: _247  and  _248
REMARK  105  A    between atoms: _247  and  _250
REMARK  106  A    between atoms: _252  and  _254
REMARK  107  A    between atoms: _254  and  _255
REMARK  108  A    between atoms: _254  and  _257
REMARK  109  A    between atoms: _257  and  _258
REMARK  110  A    between atoms: _263  and  _265
REMARK  111  A    between atoms: _265  and  _266
REMARK  112  A    between atoms: _269  and  _271
REMARK  113  A    between atoms: _271  and  _272
REMARK  114  A    between atoms: _274  and  _276
REMARK  115  A    between atoms: _276  and  _277
REMARK  116  A    between atoms: _276  and  _279
REMARK  117  A    between atoms: _279  and  _280
REMARK  118  A    between atoms: _283  and  _285
REMARK  119  A    between atoms: _285  and  _286
REMARK  120  A    between atoms: _288  and  _290
REMARK  121  A    between atoms: _290  and  _291
REMARK  122  A    between atoms: _290  and  _293
REMARK  123  A    between atoms: _293  and  _294
REMARK  124  A    between atoms: _297  and  _299
REMARK  125  A    between atoms: _299  and  _300
REMARK  126  A    between atoms: _299  and  _302
REMARK  127  A    between atoms: _302  and  _303
REMARK  128  A    between atoms: _306  and  _308
REMARK  129  A    between atoms: _308  and  _309
REMARK  130  A    between atoms: _308  and  _311
REMARK  131  A    between atoms: _311  and  _312
REMARK  132  A    between atoms: _314  and  _316
REMARK  133  A    between atoms: _316  and  _317
REMARK  134  A    between atoms: _316  and  _319
REMARK  135  A    between atoms: _319  and  _320
REMARK  136  A    between atoms: _323  and  _325
REMARK  137  A    between atoms: _325  and  _326
REMARK  138  A    between atoms: _325  and  _328
REMARK  139  A    between atoms: _331  and  _333
REMARK  140  A    between atoms: _333  and  _334
REMARK  141  A    between atoms: _333  and  _336
REMARK  142  A    between atoms: _336  and  _337
REMARK  143  A    between atoms: _342  and  _344
REMARK  144  A    between atoms: _344  and  _345
REMARK  145  A    between atoms: _347  and  _349
REMARK  146  A    between atoms: _349  and  _350
REMARK  147  A    between atoms: _349  and  _352
REMARK  148  A    between atoms: _352  and  _353
REMARK  149  A    between atoms: _353  and  _354
REMARK  150  A    between atoms: _354  and  _355
REMARK  151  A    between atoms: _364  and  _366
REMARK  152  A    between atoms: _366  and  _367
REMARK  153  A    between atoms: _366  and  _369
REMARK  154  A    between atoms: _369  and  _370
REMARK  155  A    between atoms: _370  and  _371
REMARK  156  A    between atoms: _373  and  _375
REMARK  157  A    between atoms: _375  and  _376
REMARK  158  A    between atoms: _375  and  _378
REMARK  159  A    between atoms: _378  and  _379
REMARK  160  A    between atoms: _382  and  _384
REMARK  161  A    between atoms: _384  and  _385
REMARK  162  A    between atoms: _387  and  _389
REMARK  163  A    between atoms: _389  and  _390
REMARK  164  A    between atoms: _389  and  _392
REMARK  165  A    between atoms: _392  and  _393
REMARK  166  A    between atoms: _395  and  _397
REMARK  167  A    between atoms: _397  and  _398
REMARK  168  A    between atoms: _397  and  _400
REMARK  169  A    between atoms: _403  and  _405
REMARK  170  A    between atoms: _405  and  _406
REMARK  171  A    between atoms: _408  and  _410
REMARK  172  A    between atoms: _410  and  _411
REMARK  173  A    between atoms: _413  and  _415
REMARK  174  A    between atoms: _415  and  _416
REMARK  175  A    between atoms: _415  and  _418
REMARK  176  A    between atoms: _418  and  _419
REMARK  177  A    between atoms: _422  and  _424
REMARK  178  A    between atoms: _424  and  _425
REMARK  179  A    between atoms: _424  and  _427
REMARK  180  A    between atoms: _427  and  _428
REMARK  181  A    between atoms: _428  and  _429
REMARK  182  A    between atoms: _431  and  _433
REMARK  183  A    between atoms: _433  and  _434
REMARK  184  A    between atoms: _436  and  _438
REMARK  185  A    between atoms: _438  and  _439
REMARK  186  A    between atoms: _438  and  _441
REMARK  187  A    between atoms: _441  and  _442
REMARK  188  A    between atoms: _446  and  _447
REMARK  189  A    between atoms: _452  and  _454
REMARK  190  A    between atoms: _454  and  _455
REMARK  191  A    between atoms: _454  and  _457
REMARK  192  A    between atoms: _457  and  _458
REMARK  193  A    between atoms: _463  and  _465
REMARK  194  A    between atoms: _465  and  _466
REMARK  195  A    between atoms: _465  and  _468
REMARK  196  A    between atoms: _468  and  _469
REMARK  197  A    between atoms: _474  and  _475
REMARK  198  A    between atoms: _477  and  _479
REMARK  199  A    between atoms: _479  and  _480
REMARK  200  A    between atoms: _479  and  _482
REMARK  201  A    between atoms: _484  and  _486
REMARK  202  A    between atoms: _486  and  _487
REMARK  203  A    between atoms: _486  and  _489
REMARK  204  A    between atoms: _489  and  _490
REMARK  205  A    between atoms: _490  and  _491
REMARK  206  A    between atoms: _491  and  _492
REMARK  207  A    between atoms: _492  and  _493
REMARK  208  A    between atoms: _497  and  _499
REMARK  209  A    between atoms: _499  and  _500
REMARK  210  A    between atoms: _499  and  _502
REMARK  211  A    between atoms: _502  and  _503
REMARK  212  A    between atoms: _503  and  _504
REMARK  213  A    between atoms: _507  and  _509
REMARK  214  A    between atoms: _509  and  _510
REMARK  215  A    between atoms: _509  and  _512
REMARK  216  A    between atoms: _514  and  _516
REMARK  217  A    between atoms: _516  and  _517
REMARK  218  A    between atoms: _520  and  _521
REMARK  219  A    between atoms: _526  and  _528
REMARK  220  A    between atoms: _528  and  _529
REMARK  221  A    between atoms: _528  and  _531
REMARK  222  A    between atoms: _534  and  _536
REMARK  223  A    between atoms: _536  and  _537
REMARK  224  A    between atoms: _536  and  _539
REMARK  225  A    between atoms: _539  and  _540
REMARK  226  A    between atoms: _543  and  _545
REMARK  227  A    between atoms: _545  and  _546
REMARK  228  A    between atoms: _545  and  _548
REMARK  229  A    between atoms: _548  and  _549
REMARK  230  A    between atoms: _555  and  _557
REMARK  231  A    between atoms: _557  and  _558
REMARK  232  A    between atoms: _557  and  _560
REMARK  233  A    between atoms: _560  and  _561
REMARK  234  A    between atoms: _561  and  _562
REMARK  235  A    between atoms: _564  and  _566
REMARK  236  A    between atoms: _566  and  _567
REMARK  237  A    between atoms: _566  and  _569
REMARK  238  A    between atoms: _569  and  _570
REMARK  239  A    between atoms: _570  and  _571
REMARK  240  A    between atoms: _574  and  _576
REMARK  241  A    between atoms: _576  and  _577
REMARK  242  A    between atoms: _576  and  _579
REMARK  243  A    between atoms: _579  and  _580
REMARK  244  A    between atoms: _580  and  _581
REMARK  245  A    between atoms: _581  and  _582
REMARK  246  A    between atoms: _582  and  _583
REMARK  247  A    between atoms: _587  and  _589
REMARK  248  A    between atoms: _589  and  _590
REMARK  249  A    between atoms: _589  and  _592
REMARK  250  A    between atoms: _592  and  _593
REMARK  251  A    between atoms: _598  and  _599
REMARK  252  A    between atoms: _601  and  _603
REMARK  253  A    between atoms: _603  and  _604
REMARK  254  A    between atoms: _603  and  _606
REMARK  255  A    between atoms: _606  and  _607
REMARK  256  A    between atoms: _610  and  _612
REMARK  257  A    between atoms: _612  and  _613
REMARK  258  A    between atoms: _612  and  _615
REMARK  259  A    between atoms: _615  and  _616
REMARK  260  A    between atoms: _621  and  _623
REMARK  261  A    between atoms: _623  and  _624
REMARK  262  A    between atoms: _623  and  _626
REMARK  263  A    between atoms: _626  and  _627
REMARK  264  A    between atoms: _629  and  _631
REMARK  265  A    between atoms: _631  and  _632
REMARK  266  A    between atoms: _631  and  _634
REMARK  267  A    between atoms: _634  and  _635
REMARK  268  A    between atoms: _635  and  _636
REMARK  269  A    between atoms: _636  and  _637
REMARK  270  A    between atoms: _637  and  _638
REMARK  271  A    between atoms: _642  and  _644
REMARK  272  A    between atoms: _644  and  _645
REMARK  273  A    between atoms: _644  and  _647
REMARK  274  A    between atoms: _647  and  _648
REMARK  275  A    between atoms: _648  and  _649
REMARK  276  A    between atoms: _654  and  _656
REMARK  277  A    between atoms: _656  and  _657
REMARK  278  A    between atoms: _656  and  _659
REMARK  279  A    between atoms: _662  and  _664
REMARK  280  A    between atoms: _664  and  _665
REMARK  281  A    between atoms: _664  and  _667
REMARK  282  A    between atoms: _667  and  _668
REMARK  283  A    between atoms: _674  and  _676
REMARK  284  A    between atoms: _676  and  _677
REMARK  285  A    between atoms: _680  and  _682
REMARK  286  A    between atoms: _682  and  _683
REMARK  287  A    between atoms: _682  and  _685
REMARK  288  A    between atoms: _685  and  _686
REMARK  289  A    between atoms: _689  and  _691
REMARK  290  A    between atoms: _691  and  _692
REMARK  291  A    between atoms: _691  and  _694
REMARK  292  A    between atoms: _694  and  _695
REMARK  293  A    between atoms: _695  and  _696
REMARK  294  A    between atoms: _696  and  _697
REMARK  295  A    between atoms: _706  and  _708
REMARK  296  A    between atoms: _708  and  _709
REMARK  297  A    between atoms: _708  and  _711
REMARK  298  A    between atoms: _711  and  _712
REMARK  299  A    between atoms: _718  and  _720
REMARK  300  A    between atoms: _720  and  _721
REMARK  301  A    between atoms: _720  and  _723
REMARK  302  A    between atoms: _723  and  _724
REMARK  303  A    between atoms: _727  and  _729
REMARK  304  A    between atoms: _729  and  _730
REMARK  305  A    between atoms: _729  and  _732
REMARK  306  A    between atoms: _732  and  _733
REMARK  307  A    between atoms: _738  and  _739
REMARK  308  A    between atoms: _741  and  _743
REMARK  309  A    between atoms: _743  and  _744
REMARK  310  A    between atoms: _747  and  _749
REMARK  311  A    between atoms: _749  and  _750
REMARK  312  A    between atoms: _749  and  _752
REMARK  313  A    between atoms: _752  and  _753
REMARK  314  A    between atoms: _753  and  _754
REMARK  315  A    between atoms: _756  and  _758
REMARK  316  A    between atoms: _758  and  _759
REMARK  317  A    between atoms: _758  and  _761
REMARK  318  A    between atoms: _761  and  _762
REMARK  319  A    between atoms: _767  and  _769
REMARK  320  A    between atoms: _769  and  _770
REMARK  321  A    between atoms: _769  and  _772
REMARK  322  A    between atoms: _772  and  _773
REMARK  323  A    between atoms: _773  and  _774
REMARK  324  A    between atoms: _774  and  _775
REMARK  325  A    between atoms: _784  and  _786
REMARK  326  A    between atoms: _786  and  _787
REMARK  327  A    between atoms: _786  and  _789
REMARK  328  A    between atoms: _789  and  _790
REMARK  329  A    between atoms: _790  and  _791
REMARK  330  A    between atoms: _794  and  _796
REMARK  331  A    between atoms: _796  and  _797
REMARK  332  A    between atoms: _796  and  _799
REMARK  333  A    between atoms: _802  and  _804
REMARK  334  A    between atoms: _804  and  _805
REMARK  335  A    between atoms: _804  and  _807
REMARK  336  A    between atoms: _807  and  _808
REMARK                            x       y       z     vdW  Elec       q    Type
REMARK                         _______ _______ _______ _____ _____    ______ ____
ROOT
ATOM      1  O   HOH     1       8.847  19.018  -9.301  0.00  0.00    +0.000 OA
ENDROOT
TORSDOF 0
REMARK  Name = ../refined-set-2016/1i5r/1i5r_pocket.pdb
REMARK  336 active torsions:
REMARK  status: ('A' for Active; 'I' for Inactive)
REMARK    1  A    between atoms: _1  and  _3
REMARK    2  A    between atoms: _3  and  _4
REMARK    3  A    between atoms: _3  and  _6
REMARK    4  A    between atoms: _6  and  _7
REMARK    5  A    between atoms: _10  and  _12
REMARK    6  A    between atoms: _12  and  _13
REMARK    7  A    between atoms: _12  and  _15
REMARK    8  A    between atoms: _15  and  _16
REMARK    9  A    between atoms: _19  and  _21
REMARK   10  A    between atoms: _21  and  _22
REMARK   11  A    between atoms: _24  and  _26
REMARK   12  A    between atoms: _26  and  _27
REMARK   13  A    between atoms: _26  and  _29
REMARK   14  A    between atoms: _31  and  _33
REMARK   15  A    between atoms: _33  and  _34
REMARK   16  A    between atoms: _33  and  _36
REMARK   17  A    between atoms: _36  and  _37
REMARK   18  A    between atoms: _39  and  _41
REMARK   19  A    between atoms: _41  and  _42
REMARK   20  A    between atoms: _41  and  _44
REMARK   21  A    between atoms: _44  and  _45
REMARK   22  A    between atoms: _47  and  _49
REMARK   23  A    between atoms: _49  and  _50
REMARK   24  A    between atoms: _52  and  _54
REMARK   25  A    between atoms: _54  and  _55
REMARK   26  A    between atoms: _54  and  _57
REMARK   27  A    between atoms: _57  and  _58
REMARK   28  A    between atoms: _61  and  _63
REMARK   29  A    between atoms: _63  and  _64
REMARK   30  A    between atoms: _66  and  _68
REMARK   31  A    between atoms: _68  and  _69
REMARK   32  A    between atoms: _68  and  _71
REMARK   33  A    between atoms: _71  and  _72
REMARK   34  A    between atoms: _75  and  _77
REMARK   35  A    between atoms: _77  and  _78
REMARK   36  A    between atoms: _77  and  _80
REMARK   37  A    between atoms: _80  and  _81
REMARK   38  A    between atoms: _86  and  _88
REMARK   39  A    between atoms: _88  and  _89
REMARK   40  A    between atoms: _88  and  _91
REMARK   41  A    between atoms: _91  and  _92
REMARK   42  A    between atoms: _95  and  _97
REMARK   43  A    between atoms: _97  and  _98
REMARK   44  A    between atoms: _97  and  _100
REMARK   45  A    between atoms: _100  and  _101
REMARK   46  A    between atoms: _104  and  _106
REMARK   47  A    between atoms: _106  and  _107
REMARK   48  A    between atoms: _106  and  _109
REMARK   49  A    between atoms: _109  and  _110
REMARK   50  A    between atoms: _110  and  _111
REMARK   51  A    between atoms: _111  and  _112
REMARK   52  A    between atoms: _121  and  _123
REMARK   53  A    between atoms: _123  and  _124
REMARK   54  A    between atoms: _123  and  _126
REMARK   55  A    between atoms: _126  and  _127
REMARK   56  A    between atoms: _130  and  _132
REMARK   57  A    between atoms: _132  and  _133
REMARK   58  A    between atoms: _132  and  _135
REMARK   59  A    between atoms: _135  and  _136
REMARK   60  A    between atoms: _139  and  _141
REMARK   61  A    between atoms: _141  and  _142
REMARK   62  A    between atoms: _141  and  _144
REMARK   63  A    between atoms: _144  and  _145
REMARK   64  A    between atoms: _145  and  _146
REMARK   65  A    between atoms: _146  and  _147
REMARK   66  A    between atoms: _156  and  _158
REMARK   67  A    between atoms: _158  and  _159
REMARK   68  A    between atoms: _158  and  _161
REMARK   69  A    between atoms: _161  and  _162
REMARK   70  A    between atoms: _165  and  _167
REMARK   71  A    between atoms: _167  and  _168
REMARK   72  A    between atoms: _167  and  _170
REMARK   73  A    between atoms: _170  and  _171
REMARK   74  A    between atoms: _171  and  _172
REMARK   75  A    between atoms: _177  and  _179
REMARK   76  A    between atoms: _179  and  _180
REMARK   77  A    between atoms: _179  and  _182
REMARK   78  A    between atoms: _182  and  _183
REMARK   79  A    between atoms: _186  and  _188
REMARK   80  A    between atoms: _188  and  _189
REMARK   81  A    between atoms: _188  and  _191
REMARK   82  A    between atoms: _191  and  _192
REMARK   83  A    between atoms: _195  and  _197
REMARK   84  A    between atoms: _197  and  _198
REMARK   85  A    between atoms: _197  and  _200
REMARK   86  A    between atoms: _203  and  _205
REMARK   87  A    between atoms: _205  and  _206
REMARK   88  A    between atoms: _205  and  _208
REMARK   89  A    between atoms: _208  and  _209
REMARK   90  A    between atoms: _209  and  _210
REMARK   91  A    between atoms: _210  and  _211
REMARK   92  A    between atoms: _220  and  _222
REMARK   93  A    between atoms: _222  and  _223
REMARK   94  A    between atoms: _222  and  _225
REMARK   95  A    between atoms: _225  and  _226
REMARK   96  A    between atoms: _229  and  _231
REMARK   97  A    between atoms: _231  and  _232
REMARK   98  A    between atoms: _231  and  _234
REMARK   99  A    between atoms: _234  and  _235
REMARK  100  A    between atoms: _237  and  _239
REMARK  101  A    between atoms: _239  and  _240
REMARK  102  A    between atoms: _239  and  _242
REMARK  103  A    between atoms: _245  and  _247
REMARK  104  A    between atoms: _247  and  _248
REMARK  105  A    between atoms: _247  and  _250
REMARK  106  A    between atoms: _252  and  _254
REMARK  107  A    between atoms: _254  and  _255
REMARK  108  A    between atoms: _254  and  _257
REMARK  109  A    between atoms: _257  and  _258
REMARK  110  A    between atoms: _263  and  _265
REMARK  111  A    between atoms: _265  and  _266
REMARK  112  A    between atoms: _269  and  _271
REMARK  113  A    between atoms: _271  and  _272
REMARK  114  A    between atoms: _274  and  _276
REMARK  115  A    between atoms: _276  and  _277
REMARK  116  A    between atoms: _276  and  _279
REMARK  117  A    between atoms: _279  and  _280
REMARK  118  A    between atoms: _283  and  _285
REMARK  119  A    between atoms: _285  and  _286
REMARK  120  A    between atoms: _288  and  _290
REMARK  121  A    between atoms: _290  and  _291
REMARK  122  A    between atoms: _290  and  _293
REMARK  123  A    between atoms: _293  and  _294
REMARK  124  A    between atoms: _297  and  _299
REMARK  125  A    between atoms: _299  and  _300
REMARK  126  A    between atoms: _299  and  _302
REMARK  127  A    between atoms: _302  and  _303
REMARK  128  A    between atoms: _306  and  _308
REMARK  129  A    between atoms: _308  and  _309
REMARK  130  A    between atoms: _308  and  _311
REMARK  131  A    between atoms: _311  and  _312
REMARK  132  A    between atoms: _314  and  _316
REMARK  133  A    between atoms: _316  and  _317
REMARK  134  A    between atoms: _316  and  _319
REMARK  135  A    between atoms: _319  and  _320
REMARK  136  A    between atoms: _323  and  _325
REMARK  137  A    between atoms: _325  and  _326
REMARK  138  A    between atoms: _325  and  _328
REMARK  139  A    between atoms: _331  and  _333
REMARK  140  A    between atoms: _333  and  _334
REMARK  141  A    between atoms: _333  and  _336
REMARK  142  A    between atoms: _336  and  _337
REMARK  143  A    between atoms: _342  and  _344
REMARK  144  A    between atoms: _344  and  _345
REMARK  145  A    between atoms: _347  and  _349
REMARK  146  A    between atoms: _349  and  _350
REMARK  147  A    between atoms: _349  and  _352
REMARK  148  A    between atoms: _352  and  _353
REMARK  149  A    between atoms: _353  and  _354
REMARK  150  A    between atoms: _354  and  _355
REMARK  151  A    between atoms: _364  and  _366
REMARK  152  A    between atoms: _366  and  _367
REMARK  153  A    between atoms: _366  and  _369
REMARK  154  A    between atoms: _369  and  _370
REMARK  155  A    between atoms: _370  and  _371
REMARK  156  A    between atoms: _373  and  _375
REMARK  157  A    between atoms: _375  and  _376
REMARK  158  A    between atoms: _375  and  _378
REMARK  159  A    between atoms: _378  and  _379
REMARK  160  A    between atoms: _382  and  _384
REMARK  161  A    between atoms: _384  and  _385
REMARK  162  A    between atoms: _387  and  _389
REMARK  163  A    between atoms: _389  and  _390
REMARK  164  A    between atoms: _389  and  _392
REMARK  165  A    between atoms: _392  and  _393
REMARK  166  A    between atoms: _395  and  _397
REMARK  167  A    between atoms: _397  and  _398
REMARK  168  A    between atoms: _397  and  _400
REMARK  169  A    between atoms: _403  and  _405
REMARK  170  A    between atoms: _405  and  _406
REMARK  171  A    between atoms: _408  and  _410
REMARK  172  A    between atoms: _410  and  _411
REMARK  173  A    between atoms: _413  and  _415
REMARK  174  A    between atoms: _415  and  _416
REMARK  175  A    between atoms: _415  and  _418
REMARK  176  A    between atoms: _418  and  _419
REMARK  177  A    between atoms: _422  and  _424
REMARK  178  A    between atoms: _424  and  _425
REMARK  179  A    between atoms: _424  and  _427
REMARK  180  A    between atoms: _427  and  _428
REMARK  181  A    between atoms: _428  and  _429
REMARK  182  A    between atoms: _431  and  _433
REMARK  183  A    between atoms: _433  and  _434
REMARK  184  A    between atoms: _436  and  _438
REMARK  185  A    between atoms: _438  and  _439
REMARK  186  A    between atoms: _438  and  _441
REMARK  187  A    between atoms: _441  and  _442
REMARK  188  A    between atoms: _446  and  _447
REMARK  189  A    between atoms: _452  and  _454
REMARK  190  A    between atoms: _454  and  _455
REMARK  191  A    between atoms: _454  and  _457
REMARK  192  A    between atoms: _457  and  _458
REMARK  193  A    between atoms: _463  and  _465
REMARK  194  A    between atoms: _465  and  _466
REMARK  195  A    between atoms: _465  and  _468
REMARK  196  A    between atoms: _468  and  _469
REMARK  197  A    between atoms: _474  and  _475
REMARK  198  A    between atoms: _477  and  _479
REMARK  199  A    between atoms: _479  and  _480
REMARK  200  A    between atoms: _479  and  _482
REMARK  201  A    between atoms: _484  and  _486
REMARK  202  A    between atoms: _486  and  _487
REMARK  203  A    between atoms: _486  and  _489
REMARK  204  A    between atoms: _489  and  _490
REMARK  205  A    between atoms: _490  and  _491
REMARK  206  A    between atoms: _491  and  _492
REMARK  207  A    between atoms: _492  and  _493
REMARK  208  A    between atoms: _497  and  _499
REMARK  209  A    between atoms: _499  and  _500
REMARK  210  A    between atoms: _499  and  _502
REMARK  211  A    between atoms: _502  and  _503
REMARK  212  A    between atoms: _503  and  _504
REMARK  213  A    between atoms: _507  and  _509
REMARK  214  A    between atoms: _509  and  _510
REMARK  215  A    between atoms: _509  and  _512
REMARK  216  A    between atoms: _514  and  _516
REMARK  217  A    between atoms: _516  and  _517
REMARK  218  A    between atoms: _520  and  _521
REMARK  219  A    between atoms: _526  and  _528
REMARK  220  A    between atoms: _528  and  _529
REMARK  221  A    between atoms: _528  and  _531
REMARK  222  A    between atoms: _534  and  _536
REMARK  223  A    between atoms: _536  and  _537
REMARK  224  A    between atoms: _536  and  _539
REMARK  225  A    between atoms: _539  and  _540
REMARK  226  A    between atoms: _543  and  _545
REMARK  227  A    between atoms: _545  and  _546
REMARK  228  A    between atoms: _545  and  _548
REMARK  229  A    between atoms: _548  and  _549
REMARK  230  A    between atoms: _555  and  _557
REMARK  231  A    between atoms: _557  and  _558
REMARK  232  A    between atoms: _557  and  _560
REMARK  233  A    between atoms: _560  and  _561
REMARK  234  A    between atoms: _561  and  _562
REMARK  235  A    between atoms: _564  and  _566
REMARK  236  A    between atoms: _566  and  _567
REMARK  237  A    between atoms: _566  and  _569
REMARK  238  A    between atoms: _569  and  _570
REMARK  239  A    between atoms: _570  and  _571
REMARK  240  A    between atoms: _574  and  _576
REMARK  241  A    between atoms: _576  and  _577
REMARK  242  A    between atoms: _576  and  _579
REMARK  243  A    between atoms: _579  and  _580
REMARK  244  A    between atoms: _580  and  _581
REMARK  245  A    between atoms: _581  and  _582
REMARK  246  A    between atoms: _582  and  _583
REMARK  247  A    between atoms: _587  and  _589
REMARK  248  A    between atoms: _589  and  _590
REMARK  249  A    between atoms: _589  and  _592
REMARK  250  A    between atoms: _592  and  _593
REMARK  251  A    between atoms: _598  and  _599
REMARK  252  A    between atoms: _601  and  _603
REMARK  253  A    between atoms: _603  and  _604
REMARK  254  A    between atoms: _603  and  _606
REMARK  255  A    between atoms: _606  and  _607
REMARK  256  A    between atoms: _610  and  _612
REMARK  257  A    between atoms: _612  and  _613
REMARK  258  A    between atoms: _612  and  _615
REMARK  259  A    between atoms: _615  and  _616
REMARK  260  A    between atoms: _621  and  _623
REMARK  261  A    between atoms: _623  and  _624
REMARK  262  A    between atoms: _623  and  _626
REMARK  263  A    between atoms: _626  and  _627
REMARK  264  A    between atoms: _629  and  _631
REMARK  265  A    between atoms: _631  and  _632
REMARK  266  A    between atoms: _631  and  _634
REMARK  267  A    between atoms: _634  and  _635
REMARK  268  A    between atoms: _635  and  _636
REMARK  269  A    between atoms: _636  and  _637
REMARK  270  A    between atoms: _637  and  _638
REMARK  271  A    between atoms: _642  and  _644
REMARK  272  A    between atoms: _644  and  _645
REMARK  273  A    between atoms: _644  and  _647
REMARK  274  A    between atoms: _647  and  _648
REMARK  275  A    between atoms: _648  and  _649
REMARK  276  A    between atoms: _654  and  _656
REMARK  277  A    between atoms: _656  and  _657
REMARK  278  A    between atoms: _656  and  _659
REMARK  279  A    between atoms: _662  and  _664
REMARK  280  A    between atoms: _664  and  _665
REMARK  281  A    between atoms: _664  and  _667
REMARK  282  A    between atoms: _667  and  _668
REMARK  283  A    between atoms: _674  and  _676
REMARK  284  A    between atoms: _676  and  _677
REMARK  285  A    between atoms: _680  and  _682
REMARK  286  A    between atoms: _682  and  _683
REMARK  287  A    between atoms: _682  and  _685
REMARK  288  A    between atoms: _685  and  _686
REMARK  289  A    between atoms: _689  and  _691
REMARK  290  A    between atoms: _691  and  _692
REMARK  291  A    between atoms: _691  and  _694
REMARK  292  A    between atoms: _694  and  _695
REMARK  293  A    between atoms: _695  and  _696
REMARK  294  A    between atoms: _696  and  _697
REMARK  295  A    between atoms: _706  and  _708
REMARK  296  A    between atoms: _708  and  _709
REMARK  297  A    between atoms: _708  and  _711
REMARK  298  A    between atoms: _711  and  _712
REMARK  299  A    between atoms: _718  and  _720
REMARK  300  A    between atoms: _720  and  _721
REMARK  301  A    between atoms: _720  and  _723
REMARK  302  A    between atoms: _723  and  _724
REMARK  303  A    between atoms: _727  and  _729
REMARK  304  A    between atoms: _729  and  _730
REMARK  305  A    between atoms: _729  and  _732
REMARK  306  A    between atoms: _732  and  _733
REMARK  307  A    between atoms: _738  and  _739
REMARK  308  A    between atoms: _741  and  _743
REMARK  309  A    between atoms: _743  and  _744
REMARK  310  A    between atoms: _747  and  _749
REMARK  311  A    between atoms: _749  and  _750
REMARK  312  A    between atoms: _749  and  _752
REMARK  313  A    between atoms: _752  and  _753
REMARK  314  A    between atoms: _753  and  _754
REMARK  315  A    between atoms: _756  and  _758
REMARK  316  A    between atoms: _758  and  _759
REMARK  317  A    between atoms: _758  and  _761
REMARK  318  A    between atoms: _761  and  _762
REMARK  319  A    between atoms: _767  and  _769
REMARK  320  A    between atoms: _769  and  _770
REMARK  321  A    between atoms: _769  and  _772
REMARK  322  A    between atoms: _772  and  _773
REMARK  323  A    between atoms: _773  and  _774
REMARK  324  A    between atoms: _774  and  _775
REMARK  325  A    between atoms: _784  and  _786
REMARK  326  A    between atoms: _786  and  _787
REMARK  327  A    between atoms: _786  and  _789
REMARK  328  A    between atoms: _789  and  _790
REMARK  329  A    between atoms: _790  and  _791
REMARK  330  A    between atoms: _794  and  _796
REMARK  331  A    between atoms: _796  and  _797
REMARK  332  A    between atoms: _796  and  _799
REMARK  333  A    between atoms: _802  and  _804
REMARK  334  A    between atoms: _804  and  _805
REMARK  335  A    between atoms: _804  and  _807
REMARK  336  A    between atoms: _807  and  _808
REMARK                            x       y       z     vdW  Elec       q    Type
REMARK                         _______ _______ _______ _____ _____    ______ ____
ROOT
ATOM      1  O   HOH     1      11.401  15.922 -12.830  0.00  0.00    +0.000 OA
ENDROOT
TORSDOF 0
REMARK  Name = ../refined-set-2016/1i5r/1i5r_pocket.pdb
REMARK  336 active torsions:
REMARK  status: ('A' for Active; 'I' for Inactive)
REMARK    1  A    between atoms: _1  and  _3
REMARK    2  A    between atoms: _3  and  _4
REMARK    3  A    between atoms: _3  and  _6
REMARK    4  A    between atoms: _6  and  _7
REMARK    5  A    between atoms: _10  and  _12
REMARK    6  A    between atoms: _12  and  _13
REMARK    7  A    between atoms: _12  and  _15
REMARK    8  A    between atoms: _15  and  _16
REMARK    9  A    between atoms: _19  and  _21
REMARK   10  A    between atoms: _21  and  _22
REMARK   11  A    between atoms: _24  and  _26
REMARK   12  A    between atoms: _26  and  _27
REMARK   13  A    between atoms: _26  and  _29
REMARK   14  A    between atoms: _31  and  _33
REMARK   15  A    between atoms: _33  and  _34
REMARK   16  A    between atoms: _33  and  _36
REMARK   17  A    between atoms: _36  and  _37
REMARK   18  A    between atoms: _39  and  _41
REMARK   19  A    between atoms: _41  and  _42
REMARK   20  A    between atoms: _41  and  _44
REMARK   21  A    between atoms: _44  and  _45
REMARK   22  A    between atoms: _47  and  _49
REMARK   23  A    between atoms: _49  and  _50
REMARK   24  A    between atoms: _52  and  _54
REMARK   25  A    between atoms: _54  and  _55
REMARK   26  A    between atoms: _54  and  _57
REMARK   27  A    between atoms: _57  and  _58
REMARK   28  A    between atoms: _61  and  _63
REMARK   29  A    between atoms: _63  and  _64
REMARK   30  A    between atoms: _66  and  _68
REMARK   31  A    between atoms: _68  and  _69
REMARK   32  A    between atoms: _68  and  _71
REMARK   33  A    between atoms: _71  and  _72
REMARK   34  A    between atoms: _75  and  _77
REMARK   35  A    between atoms: _77  and  _78
REMARK   36  A    between atoms: _77  and  _80
REMARK   37  A    between atoms: _80  and  _81
REMARK   38  A    between atoms: _86  and  _88
REMARK   39  A    between atoms: _88  and  _89
REMARK   40  A    between atoms: _88  and  _91
REMARK   41  A    between atoms: _91  and  _92
REMARK   42  A    between atoms: _95  and  _97
REMARK   43  A    between atoms: _97  and  _98
REMARK   44  A    between atoms: _97  and  _100
REMARK   45  A    between atoms: _100  and  _101
REMARK   46  A    between atoms: _104  and  _106
REMARK   47  A    between atoms: _106  and  _107
REMARK   48  A    between atoms: _106  and  _109
REMARK   49  A    between atoms: _109  and  _110
REMARK   50  A    between atoms: _110  and  _111
REMARK   51  A    between atoms: _111  and  _112
REMARK   52  A    between atoms: _121  and  _123
REMARK   53  A    between atoms: _123  and  _124
REMARK   54  A    between atoms: _123  and  _126
REMARK   55  A    between atoms: _126  and  _127
REMARK   56  A    between atoms: _130  and  _132
REMARK   57  A    between atoms: _132  and  _133
REMARK   58  A    between atoms: _132  and  _135
REMARK   59  A    between atoms: _135  and  _136
REMARK   60  A    between atoms: _139  and  _141
REMARK   61  A    between atoms: _141  and  _142
REMARK   62  A    between atoms: _141  and  _144
REMARK   63  A    between atoms: _144  and  _145
REMARK   64  A    between atoms: _145  and  _146
REMARK   65  A    between atoms: _146  and  _147
REMARK   66  A    between atoms: _156  and  _158
REMARK   67  A    between atoms: _158  and  _159
REMARK   68  A    between atoms: _158  and  _161
REMARK   69  A    between atoms: _161  and  _162
REMARK   70  A    between atoms: _165  and  _167
REMARK   71  A    between atoms: _167  and  _168
REMARK   72  A    between atoms: _167  and  _170
REMARK   73  A    between atoms: _170  and  _171
REMARK   74  A    between atoms: _171  and  _172
REMARK   75  A    between atoms: _177  and  _179
REMARK   76  A    between atoms: _179  and  _180
REMARK   77  A    between atoms: _179  and  _182
REMARK   78  A    between atoms: _182  and  _183
REMARK   79  A    between atoms: _186  and  _188
REMARK   80  A    between atoms: _188  and  _189
REMARK   81  A    between atoms: _188  and  _191
REMARK   82  A    between atoms: _191  and  _192
REMARK   83  A    between atoms: _195  and  _197
REMARK   84  A    between atoms: _197  and  _198
REMARK   85  A    between atoms: _197  and  _200
REMARK   86  A    between atoms: _203  and  _205
REMARK   87  A    between atoms: _205  and  _206
REMARK   88  A    between atoms: _205  and  _208
REMARK   89  A    between atoms: _208  and  _209
REMARK   90  A    between atoms: _209  and  _210
REMARK   91  A    between atoms: _210  and  _211
REMARK   92  A    between atoms: _220  and  _222
REMARK   93  A    between atoms: _222  and  _223
REMARK   94  A    between atoms: _222  and  _225
REMARK   95  A    between atoms: _225  and  _226
REMARK   96  A    between atoms: _229  and  _231
REMARK   97  A    between atoms: _231  and  _232
REMARK   98  A    between atoms: _231  and  _234
REMARK   99  A    between atoms: _234  and  _235
REMARK  100  A    between atoms: _237  and  _239
REMARK  101  A    between atoms: _239  and  _240
REMARK  102  A    between atoms: _239  and  _242
REMARK  103  A    between atoms: _245  and  _247
REMARK  104  A    between atoms: _247  and  _248
REMARK  105  A    between atoms: _247  and  _250
REMARK  106  A    between atoms: _252  and  _254
REMARK  107  A    between atoms: _254  and  _255
REMARK  108  A    between atoms: _254  and  _257
REMARK  109  A    between atoms: _257  and  _258
REMARK  110  A    between atoms: _263  and  _265
REMARK  111  A    between atoms: _265  and  _266
REMARK  112  A    between atoms: _269  and  _271
REMARK  113  A    between atoms: _271  and  _272
REMARK  114  A    between atoms: _274  and  _276
REMARK  115  A    between atoms: _276  and  _277
REMARK  116  A    between atoms: _276  and  _279
REMARK  117  A    between atoms: _279  and  _280
REMARK  118  A    between atoms: _283  and  _285
REMARK  119  A    between atoms: _285  and  _286
REMARK  120  A    between atoms: _288  and  _290
REMARK  121  A    between atoms: _290  and  _291
REMARK  122  A    between atoms: _290  and  _293
REMARK  123  A    between atoms: _293  and  _294
REMARK  124  A    between atoms: _297  and  _299
REMARK  125  A    between atoms: _299  and  _300
REMARK  126  A    between atoms: _299  and  _302
REMARK  127  A    between atoms: _302  and  _303
REMARK  128  A    between atoms: _306  and  _308
REMARK  129  A    between atoms: _308  and  _309
REMARK  130  A    between atoms: _308  and  _311
REMARK  131  A    between atoms: _311  and  _312
REMARK  132  A    between atoms: _314  and  _316
REMARK  133  A    between atoms: _316  and  _317
REMARK  134  A    between atoms: _316  and  _319
REMARK  135  A    between atoms: _319  and  _320
REMARK  136  A    between atoms: _323  and  _325
REMARK  137  A    between atoms: _325  and  _326
REMARK  138  A    between atoms: _325  and  _328
REMARK  139  A    between atoms: _331  and  _333
REMARK  140  A    between atoms: _333  and  _334
REMARK  141  A    between atoms: _333  and  _336
REMARK  142  A    between atoms: _336  and  _337
REMARK  143  A    between atoms: _342  and  _344
REMARK  144  A    between atoms: _344  and  _345
REMARK  145  A    between atoms: _347  and  _349
REMARK  146  A    between atoms: _349  and  _350
REMARK  147  A    between atoms: _349  and  _352
REMARK  148  A    between atoms: _352  and  _353
REMARK  149  A    between atoms: _353  and  _354
REMARK  150  A    between atoms: _354  and  _355
REMARK  151  A    between atoms: _364  and  _366
REMARK  152  A    between atoms: _366  and  _367
REMARK  153  A    between atoms: _366  and  _369
REMARK  154  A    between atoms: _369  and  _370
REMARK  155  A    between atoms: _370  and  _371
REMARK  156  A    between atoms: _373  and  _375
REMARK  157  A    between atoms: _375  and  _376
REMARK  158  A    between atoms: _375  and  _378
REMARK  159  A    between atoms: _378  and  _379
REMARK  160  A    between atoms: _382  and  _384
REMARK  161  A    between atoms: _384  and  _385
REMARK  162  A    between atoms: _387  and  _389
REMARK  163  A    between atoms: _389  and  _390
REMARK  164  A    between atoms: _389  and  _392
REMARK  165  A    between atoms: _392  and  _393
REMARK  166  A    between atoms: _395  and  _397
REMARK  167  A    between atoms: _397  and  _398
REMARK  168  A    between atoms: _397  and  _400
REMARK  169  A    between atoms: _403  and  _405
REMARK  170  A    between atoms: _405  and  _406
REMARK  171  A    between atoms: _408  and  _410
REMARK  172  A    between atoms: _410  and  _411
REMARK  173  A    between atoms: _413  and  _415
REMARK  174  A    between atoms: _415  and  _416
REMARK  175  A    between atoms: _415  and  _418
REMARK  176  A    between atoms: _418  and  _419
REMARK  177  A    between atoms: _422  and  _424
REMARK  178  A    between atoms: _424  and  _425
REMARK  179  A    between atoms: _424  and  _427
REMARK  180  A    between atoms: _427  and  _428
REMARK  181  A    between atoms: _428  and  _429
REMARK  182  A    between atoms: _431  and  _433
REMARK  183  A    between atoms: _433  and  _434
REMARK  184  A    between atoms: _436  and  _438
REMARK  185  A    between atoms: _438  and  _439
REMARK  186  A    between atoms: _438  and  _441
REMARK  187  A    between atoms: _441  and  _442
REMARK  188  A    between atoms: _446  and  _447
REMARK  189  A    between atoms: _452  and  _454
REMARK  190  A    between atoms: _454  and  _455
REMARK  191  A    between atoms: _454  and  _457
REMARK  192  A    between atoms: _457  and  _458
REMARK  193  A    between atoms: _463  and  _465
REMARK  194  A    between atoms: _465  and  _466
REMARK  195  A    between atoms: _465  and  _468
REMARK  196  A    between atoms: _468  and  _469
REMARK  197  A    between atoms: _474  and  _475
REMARK  198  A    between atoms: _477  and  _479
REMARK  199  A    between atoms: _479  and  _480
REMARK  200  A    between atoms: _479  and  _482
REMARK  201  A    between atoms: _484  and  _486
REMARK  202  A    between atoms: _486  and  _487
REMARK  203  A    between atoms: _486  and  _489
REMARK  204  A    between atoms: _489  and  _490
REMARK  205  A    between atoms: _490  and  _491
REMARK  206  A    between atoms: _491  and  _492
REMARK  207  A    between atoms: _492  and  _493
REMARK  208  A    between atoms: _497  and  _499
REMARK  209  A    between atoms: _499  and  _500
REMARK  210  A    between atoms: _499  and  _502
REMARK  211  A    between atoms: _502  and  _503
REMARK  212  A    between atoms: _503  and  _504
REMARK  213  A    between atoms: _507  and  _509
REMARK  214  A    between atoms: _509  and  _510
REMARK  215  A    between atoms: _509  and  _512
REMARK  216  A    between atoms: _514  and  _516
REMARK  217  A    between atoms: _516  and  _517
REMARK  218  A    between atoms: _520  and  _521
REMARK  219  A    between atoms: _526  and  _528
REMARK  220  A    between atoms: _528  and  _529
REMARK  221  A    between atoms: _528  and  _531
REMARK  222  A    between atoms: _534  and  _536
REMARK  223  A    between atoms: _536  and  _537
REMARK  224  A    between atoms: _536  and  _539
REMARK  225  A    between atoms: _539  and  _540
REMARK  226  A    between atoms: _543  and  _545
REMARK  227  A    between atoms: _545  and  _546
REMARK  228  A    between atoms: _545  and  _548
REMARK  229  A    between atoms: _548  and  _549
REMARK  230  A    between atoms: _555  and  _557
REMARK  231  A    between atoms: _557  and  _558
REMARK  232  A    between atoms: _557  and  _560
REMARK  233  A    between atoms: _560  and  _561
REMARK  234  A    between atoms: _561  and  _562
REMARK  235  A    between atoms: _564  and  _566
REMARK  236  A    between atoms: _566  and  _567
REMARK  237  A    between atoms: _566  and  _569
REMARK  238  A    between atoms: _569  and  _570
REMARK  239  A    between atoms: _570  and  _571
REMARK  240  A    between atoms: _574  and  _576
REMARK  241  A    between atoms: _576  and  _577
REMARK  242  A    between atoms: _576  and  _579
REMARK  243  A    between atoms: _579  and  _580
REMARK  244  A    between atoms: _580  and  _581
REMARK  245  A    between atoms: _581  and  _582
REMARK  246  A    between atoms: _582  and  _583
REMARK  247  A    between atoms: _587  and  _589
REMARK  248  A    between atoms: _589  and  _590
REMARK  249  A    between atoms: _589  and  _592
REMARK  250  A    between atoms: _592  and  _593
REMARK  251  A    between atoms: _598  and  _599
REMARK  252  A    between atoms: _601  and  _603
REMARK  253  A    between atoms: _603  and  _604
REMARK  254  A    between atoms: _603  and  _606
REMARK  255  A    between atoms: _606  and  _607
REMARK  256  A    between atoms: _610  and  _612
REMARK  257  A    between atoms: _612  and  _613
REMARK  258  A    between atoms: _612  and  _615
REMARK  259  A    between atoms: _615  and  _616
REMARK  260  A    between atoms: _621  and  _623
REMARK  261  A    between atoms: _623  and  _624
REMARK  262  A    between atoms: _623  and  _626
REMARK  263  A    between atoms: _626  and  _627
REMARK  264  A    between atoms: _629  and  _631
REMARK  265  A    between atoms: _631  and  _632
REMARK  266  A    between atoms: _631  and  _634
REMARK  267  A    between atoms: _634  and  _635
REMARK  268  A    between atoms: _635  and  _636
REMARK  269  A    between atoms: _636  and  _637
REMARK  270  A    between atoms: _637  and  _638
REMARK  271  A    between atoms: _642  and  _644
REMARK  272  A    between atoms: _644  and  _645
REMARK  273  A    between atoms: _644  and  _647
REMARK  274  A    between atoms: _647  and  _648
REMARK  275  A    between atoms: _648  and  _649
REMARK  276  A    between atoms: _654  and  _656
REMARK  277  A    between atoms: _656  and  _657
REMARK  278  A    between atoms: _656  and  _659
REMARK  279  A    between atoms: _662  and  _664
REMARK  280  A    between atoms: _664  and  _665
REMARK  281  A    between atoms: _664  and  _667
REMARK  282  A    between atoms: _667  and  _668
REMARK  283  A    between atoms: _674  and  _676
REMARK  284  A    between atoms: _676  and  _677
REMARK  285  A    between atoms: _680  and  _682
REMARK  286  A    between atoms: _682  and  _683
REMARK  287  A    between atoms: _682  and  _685
REMARK  288  A    between atoms: _685  and  _686
REMARK  289  A    between atoms: _689  and  _691
REMARK  290  A    between atoms: _691  and  _692
REMARK  291  A    between atoms: _691  and  _694
REMARK  292  A    between atoms: _694  and  _695
REMARK  293  A    between atoms: _695  and  _696
REMARK  294  A    between atoms: _696  and  _697
REMARK  295  A    between atoms: _706  and  _708
REMARK  296  A    between atoms: _708  and  _709
REMARK  297  A    between atoms: _708  and  _711
REMARK  298  A    between atoms: _711  and  _712
REMARK  299  A    between atoms: _718  and  _720
REMARK  300  A    between atoms: _720  and  _721
REMARK  301  A    between atoms: _720  and  _723
REMARK  302  A    between atoms: _723  and  _724
REMARK  303  A    between atoms: _727  and  _729
REMARK  304  A    between atoms: _729  and  _730
REMARK  305  A    between atoms: _729  and  _732
REMARK  306  A    between atoms: _732  and  _733
REMARK  307  A    between atoms: _738  and  _739
REMARK  308  A    between atoms: _741  and  _743
REMARK  309  A    between atoms: _743  and  _744
REMARK  310  A    between atoms: _747  and  _749
REMARK  311  A    between atoms: _749  and  _750
REMARK  312  A    between atoms: _749  and  _752
REMARK  313  A    between atoms: _752  and  _753
REMARK  314  A    between atoms: _753  and  _754
REMARK  315  A    between atoms: _756  and  _758
REMARK  316  A    between atoms: _758  and  _759
REMARK  317  A    between atoms: _758  and  _761
REMARK  318  A    between atoms: _761  and  _762
REMARK  319  A    between atoms: _767  and  _769
REMARK  320  A    between atoms: _769  and  _770
REMARK  321  A    between atoms: _769  and  _772
REMARK  322  A    between atoms: _772  and  _773
REMARK  323  A    between atoms: _773  and  _774
REMARK  324  A    between atoms: _774  and  _775
REMARK  325  A    between atoms: _784  and  _786
REMARK  326  A    between atoms: _786  and  _787
REMARK  327  A    between atoms: _786  and  _789
REMARK  328  A    between atoms: _789  and  _790
REMARK  329  A    between atoms: _790  and  _791
REMARK  330  A    between atoms: _794  and  _796
REMARK  331  A    between atoms: _796  and  _797
REMARK  332  A    between atoms: _796  and  _799
REMARK  333  A    between atoms: _802  and  _804
REMARK  334  A    between atoms: _804  and  _805
REMARK  335  A    between atoms: _804  and  _807
REMARK  336  A    between atoms: _807  and  _808
REMARK                            x       y       z     vdW  Elec       q    Type
REMARK                         _______ _______ _______ _____ _____    ______ ____
ROOT
ATOM      1  O   HOH     1       9.989   1.811 -12.534  0.00  0.00    +0.000 OA
ENDROOT
TORSDOF 0
REMARK  Name = ../refined-set-2016/1i5r/1i5r_pocket.pdb
REMARK  336 active torsions:
REMARK  status: ('A' for Active; 'I' for Inactive)
REMARK    1  A    between atoms: _1  and  _3
REMARK    2  A    between atoms: _3  and  _4
REMARK    3  A    between atoms: _3  and  _6
REMARK    4  A    between atoms: _6  and  _7
REMARK    5  A    between atoms: _10  and  _12
REMARK    6  A    between atoms: _12  and  _13
REMARK    7  A    between atoms: _12  and  _15
REMARK    8  A    between atoms: _15  and  _16
REMARK    9  A    between atoms: _19  and  _21
REMARK   10  A    between atoms: _21  and  _22
REMARK   11  A    between atoms: _24  and  _26
REMARK   12  A    between atoms: _26  and  _27
REMARK   13  A    between atoms: _26  and  _29
REMARK   14  A    between atoms: _31  and  _33
REMARK   15  A    between atoms: _33  and  _34
REMARK   16  A    between atoms: _33  and  _36
REMARK   17  A    between atoms: _36  and  _37
REMARK   18  A    between atoms: _39  and  _41
REMARK   19  A    between atoms: _41  and  _42
REMARK   20  A    between atoms: _41  and  _44
REMARK   21  A    between atoms: _44  and  _45
REMARK   22  A    between atoms: _47  and  _49
REMARK   23  A    between atoms: _49  and  _50
REMARK   24  A    between atoms: _52  and  _54
REMARK   25  A    between atoms: _54  and  _55
REMARK   26  A    between atoms: _54  and  _57
REMARK   27  A    between atoms: _57  and  _58
REMARK   28  A    between atoms: _61  and  _63
REMARK   29  A    between atoms: _63  and  _64
REMARK   30  A    between atoms: _66  and  _68
REMARK   31  A    between atoms: _68  and  _69
REMARK   32  A    between atoms: _68  and  _71
REMARK   33  A    between atoms: _71  and  _72
REMARK   34  A    between atoms: _75  and  _77
REMARK   35  A    between atoms: _77  and  _78
REMARK   36  A    between atoms: _77  and  _80
REMARK   37  A    between atoms: _80  and  _81
REMARK   38  A    between atoms: _86  and  _88
REMARK   39  A    between atoms: _88  and  _89
REMARK   40  A    between atoms: _88  and  _91
REMARK   41  A    between atoms: _91  and  _92
REMARK   42  A    between atoms: _95  and  _97
REMARK   43  A    between atoms: _97  and  _98
REMARK   44  A    between atoms: _97  and  _100
REMARK   45  A    between atoms: _100  and  _101
REMARK   46  A    between atoms: _104  and  _106
REMARK   47  A    between atoms: _106  and  _107
REMARK   48  A    between atoms: _106  and  _109
REMARK   49  A    between atoms: _109  and  _110
REMARK   50  A    between atoms: _110  and  _111
REMARK   51  A    between atoms: _111  and  _112
REMARK   52  A    between atoms: _121  and  _123
REMARK   53  A    between atoms: _123  and  _124
REMARK   54  A    between atoms: _123  and  _126
REMARK   55  A    between atoms: _126  and  _127
REMARK   56  A    between atoms: _130  and  _132
REMARK   57  A    between atoms: _132  and  _133
REMARK   58  A    between atoms: _132  and  _135
REMARK   59  A    between atoms: _135  and  _136
REMARK   60  A    between atoms: _139  and  _141
REMARK   61  A    between atoms: _141  and  _142
REMARK   62  A    between atoms: _141  and  _144
REMARK   63  A    between atoms: _144  and  _145
REMARK   64  A    between atoms: _145  and  _146
REMARK   65  A    between atoms: _146  and  _147
REMARK   66  A    between atoms: _156  and  _158
REMARK   67  A    between atoms: _158  and  _159
REMARK   68  A    between atoms: _158  and  _161
REMARK   69  A    between atoms: _161  and  _162
REMARK   70  A    between atoms: _165  and  _167
REMARK   71  A    between atoms: _167  and  _168
REMARK   72  A    between atoms: _167  and  _170
REMARK   73  A    between atoms: _170  and  _171
REMARK   74  A    between atoms: _171  and  _172
REMARK   75  A    between atoms: _177  and  _179
REMARK   76  A    between atoms: _179  and  _180
REMARK   77  A    between atoms: _179  and  _182
REMARK   78  A    between atoms: _182  and  _183
REMARK   79  A    between atoms: _186  and  _188
REMARK   80  A    between atoms: _188  and  _189
REMARK   81  A    between atoms: _188  and  _191
REMARK   82  A    between atoms: _191  and  _192
REMARK   83  A    between atoms: _195  and  _197
REMARK   84  A    between atoms: _197  and  _198
REMARK   85  A    between atoms: _197  and  _200
REMARK   86  A    between atoms: _203  and  _205
REMARK   87  A    between atoms: _205  and  _206
REMARK   88  A    between atoms: _205  and  _208
REMARK   89  A    between atoms: _208  and  _209
REMARK   90  A    between atoms: _209  and  _210
REMARK   91  A    between atoms: _210  and  _211
REMARK   92  A    between atoms: _220  and  _222
REMARK   93  A    between atoms: _222  and  _223
REMARK   94  A    between atoms: _222  and  _225
REMARK   95  A    between atoms: _225  and  _226
REMARK   96  A    between atoms: _229  and  _231
REMARK   97  A    between atoms: _231  and  _232
REMARK   98  A    between atoms: _231  and  _234
REMARK   99  A    between atoms: _234  and  _235
REMARK  100  A    between atoms: _237  and  _239
REMARK  101  A    between atoms: _239  and  _240
REMARK  102  A    between atoms: _239  and  _242
REMARK  103  A    between atoms: _245  and  _247
REMARK  104  A    between atoms: _247  and  _248
REMARK  105  A    between atoms: _247  and  _250
REMARK  106  A    between atoms: _252  and  _254
REMARK  107  A    between atoms: _254  and  _255
REMARK  108  A    between atoms: _254  and  _257
REMARK  109  A    between atoms: _257  and  _258
REMARK  110  A    between atoms: _263  and  _265
REMARK  111  A    between atoms: _265  and  _266
REMARK  112  A    between atoms: _269  and  _271
REMARK  113  A    between atoms: _271  and  _272
REMARK  114  A    between atoms: _274  and  _276
REMARK  115  A    between atoms: _276  and  _277
REMARK  116  A    between atoms: _276  and  _279
REMARK  117  A    between atoms: _279  and  _280
REMARK  118  A    between atoms: _283  and  _285
REMARK  119  A    between atoms: _285  and  _286
REMARK  120  A    between atoms: _288  and  _290
REMARK  121  A    between atoms: _290  and  _291
REMARK  122  A    between atoms: _290  and  _293
REMARK  123  A    between atoms: _293  and  _294
REMARK  124  A    between atoms: _297  and  _299
REMARK  125  A    between atoms: _299  and  _300
REMARK  126  A    between atoms: _299  and  _302
REMARK  127  A    between atoms: _302  and  _303
REMARK  128  A    between atoms: _306  and  _308
REMARK  129  A    between atoms: _308  and  _309
REMARK  130  A    between atoms: _308  and  _311
REMARK  131  A    between atoms: _311  and  _312
REMARK  132  A    between atoms: _314  and  _316
REMARK  133  A    between atoms: _316  and  _317
REMARK  134  A    between atoms: _316  and  _319
REMARK  135  A    between atoms: _319  and  _320
REMARK  136  A    between atoms: _323  and  _325
REMARK  137  A    between atoms: _325  and  _326
REMARK  138  A    between atoms: _325  and  _328
REMARK  139  A    between atoms: _331  and  _333
REMARK  140  A    between atoms: _333  and  _334
REMARK  141  A    between atoms: _333  and  _336
REMARK  142  A    between atoms: _336  and  _337
REMARK  143  A    between atoms: _342  and  _344
REMARK  144  A    between atoms: _344  and  _345
REMARK  145  A    between atoms: _347  and  _349
REMARK  146  A    between atoms: _349  and  _350
REMARK  147  A    between atoms: _349  and  _352
REMARK  148  A    between atoms: _352  and  _353
REMARK  149  A    between atoms: _353  and  _354
REMARK  150  A    between atoms: _354  and  _355
REMARK  151  A    between atoms: _364  and  _366
REMARK  152  A    between atoms: _366  and  _367
REMARK  153  A    between atoms: _366  and  _369
REMARK  154  A    between atoms: _369  and  _370
REMARK  155  A    between atoms: _370  and  _371
REMARK  156  A    between atoms: _373  and  _375
REMARK  157  A    between atoms: _375  and  _376
REMARK  158  A    between atoms: _375  and  _378
REMARK  159  A    between atoms: _378  and  _379
REMARK  160  A    between atoms: _382  and  _384
REMARK  161  A    between atoms: _384  and  _385
REMARK  162  A    between atoms: _387  and  _389
REMARK  163  A    between atoms: _389  and  _390
REMARK  164  A    between atoms: _389  and  _392
REMARK  165  A    between atoms: _392  and  _393
REMARK  166  A    between atoms: _395  and  _397
REMARK  167  A    between atoms: _397  and  _398
REMARK  168  A    between atoms: _397  and  _400
REMARK  169  A    between atoms: _403  and  _405
REMARK  170  A    between atoms: _405  and  _406
REMARK  171  A    between atoms: _408  and  _410
REMARK  172  A    between atoms: _410  and  _411
REMARK  173  A    between atoms: _413  and  _415
REMARK  174  A    between atoms: _415  and  _416
REMARK  175  A    between atoms: _415  and  _418
REMARK  176  A    between atoms: _418  and  _419
REMARK  177  A    between atoms: _422  and  _424
REMARK  178  A    between atoms: _424  and  _425
REMARK  179  A    between atoms: _424  and  _427
REMARK  180  A    between atoms: _427  and  _428
REMARK  181  A    between atoms: _428  and  _429
REMARK  182  A    between atoms: _431  and  _433
REMARK  183  A    between atoms: _433  and  _434
REMARK  184  A    between atoms: _436  and  _438
REMARK  185  A    between atoms: _438  and  _439
REMARK  186  A    between atoms: _438  and  _441
REMARK  187  A    between atoms: _441  and  _442
REMARK  188  A    between atoms: _446  and  _447
REMARK  189  A    between atoms: _452  and  _454
REMARK  190  A    between atoms: _454  and  _455
REMARK  191  A    between atoms: _454  and  _457
REMARK  192  A    between atoms: _457  and  _458
REMARK  193  A    between atoms: _463  and  _465
REMARK  194  A    between atoms: _465  and  _466
REMARK  195  A    between atoms: _465  and  _468
REMARK  196  A    between atoms: _468  and  _469
REMARK  197  A    between atoms: _474  and  _475
REMARK  198  A    between atoms: _477  and  _479
REMARK  199  A    between atoms: _479  and  _480
REMARK  200  A    between atoms: _479  and  _482
REMARK  201  A    between atoms: _484  and  _486
REMARK  202  A    between atoms: _486  and  _487
REMARK  203  A    between atoms: _486  and  _489
REMARK  204  A    between atoms: _489  and  _490
REMARK  205  A    between atoms: _490  and  _491
REMARK  206  A    between atoms: _491  and  _492
REMARK  207  A    between atoms: _492  and  _493
REMARK  208  A    between atoms: _497  and  _499
REMARK  209  A    between atoms: _499  and  _500
REMARK  210  A    between atoms: _499  and  _502
REMARK  211  A    between atoms: _502  and  _503
REMARK  212  A    between atoms: _503  and  _504
REMARK  213  A    between atoms: _507  and  _509
REMARK  214  A    between atoms: _509  and  _510
REMARK  215  A    between atoms: _509  and  _512
REMARK  216  A    between atoms: _514  and  _516
REMARK  217  A    between atoms: _516  and  _517
REMARK  218  A    between atoms: _520  and  _521
REMARK  219  A    between atoms: _526  and  _528
REMARK  220  A    between atoms: _528  and  _529
REMARK  221  A    between atoms: _528  and  _531
REMARK  222  A    between atoms: _534  and  _536
REMARK  223  A    between atoms: _536  and  _537
REMARK  224  A    between atoms: _536  and  _539
REMARK  225  A    between atoms: _539  and  _540
REMARK  226  A    between atoms: _543  and  _545
REMARK  227  A    between atoms: _545  and  _546
REMARK  228  A    between atoms: _545  and  _548
REMARK  229  A    between atoms: _548  and  _549
REMARK  230  A    between atoms: _555  and  _557
REMARK  231  A    between atoms: _557  and  _558
REMARK  232  A    between atoms: _557  and  _560
REMARK  233  A    between atoms: _560  and  _561
REMARK  234  A    between atoms: _561  and  _562
REMARK  235  A    between atoms: _564  and  _566
REMARK  236  A    between atoms: _566  and  _567
REMARK  237  A    between atoms: _566  and  _569
REMARK  238  A    between atoms: _569  and  _570
REMARK  239  A    between atoms: _570  and  _571
REMARK  240  A    between atoms: _574  and  _576
REMARK  241  A    between atoms: _576  and  _577
REMARK  242  A    between atoms: _576  and  _579
REMARK  243  A    between atoms: _579  and  _580
REMARK  244  A    between atoms: _580  and  _581
REMARK  245  A    between atoms: _581  and  _582
REMARK  246  A    between atoms: _582  and  _583
REMARK  247  A    between atoms: _587  and  _589
REMARK  248  A    between atoms: _589  and  _590
REMARK  249  A    between atoms: _589  and  _592
REMARK  250  A    between atoms: _592  and  _593
REMARK  251  A    between atoms: _598  and  _599
REMARK  252  A    between atoms: _601  and  _603
REMARK  253  A    between atoms: _603  and  _604
REMARK  254  A    between atoms: _603  and  _606
REMARK  255  A    between atoms: _606  and  _607
REMARK  256  A    between atoms: _610  and  _612
REMARK  257  A    between atoms: _612  and  _613
REMARK  258  A    between atoms: _612  and  _615
REMARK  259  A    between atoms: _615  and  _616
REMARK  260  A    between atoms: _621  and  _623
REMARK  261  A    between atoms: _623  and  _624
REMARK  262  A    between atoms: _623  and  _626
REMARK  263  A    between atoms: _626  and  _627
REMARK  264  A    between atoms: _629  and  _631
REMARK  265  A    between atoms: _631  and  _632
REMARK  266  A    between atoms: _631  and  _634
REMARK  267  A    between atoms: _634  and  _635
REMARK  268  A    between atoms: _635  and  _636
REMARK  269  A    between atoms: _636  and  _637
REMARK  270  A    between atoms: _637  and  _638
REMARK  271  A    between atoms: _642  and  _644
REMARK  272  A    between atoms: _644  and  _645
REMARK  273  A    between atoms: _644  and  _647
REMARK  274  A    between atoms: _647  and  _648
REMARK  275  A    between atoms: _648  and  _649
REMARK  276  A    between atoms: _654  and  _656
REMARK  277  A    between atoms: _656  and  _657
REMARK  278  A    between atoms: _656  and  _659
REMARK  279  A    between atoms: _662  and  _664
REMARK  280  A    between atoms: _664  and  _665
REMARK  281  A    between atoms: _664  and  _667
REMARK  282  A    between atoms: _667  and  _668
REMARK  283  A    between atoms: _674  and  _676
REMARK  284  A    between atoms: _676  and  _677
REMARK  285  A    between atoms: _680  and  _682
REMARK  286  A    between atoms: _682  and  _683
REMARK  287  A    between atoms: _682  and  _685
REMARK  288  A    between atoms: _685  and  _686
REMARK  289  A    between atoms: _689  and  _691
REMARK  290  A    between atoms: _691  and  _692
REMARK  291  A    between atoms: _691  and  _694
REMARK  292  A    between atoms: _694  and  _695
REMARK  293  A    between atoms: _695  and  _696
REMARK  294  A    between atoms: _696  and  _697
REMARK  295  A    between atoms: _706  and  _708
REMARK  296  A    between atoms: _708  and  _709
REMARK  297  A    between atoms: _708  and  _711
REMARK  298  A    between atoms: _711  and  _712
REMARK  299  A    between atoms: _718  and  _720
REMARK  300  A    between atoms: _720  and  _721
REMARK  301  A    between atoms: _720  and  _723
REMARK  302  A    between atoms: _723  and  _724
REMARK  303  A    between atoms: _727  and  _729
REMARK  304  A    between atoms: _729  and  _730
REMARK  305  A    between atoms: _729  and  _732
REMARK  306  A    between atoms: _732  and  _733
REMARK  307  A    between atoms: _738  and  _739
REMARK  308  A    between atoms: _741  and  _743
REMARK  309  A    between atoms: _743  and  _744
REMARK  310  A    between atoms: _747  and  _749
REMARK  311  A    between atoms: _749  and  _750
REMARK  312  A    between atoms: _749  and  _752
REMARK  313  A    between atoms: _752  and  _753
REMARK  314  A    between atoms: _753  and  _754
REMARK  315  A    between atoms: _756  and  _758
REMARK  316  A    between atoms: _758  and  _759
REMARK  317  A    between atoms: _758  and  _761
REMARK  318  A    between atoms: _761  and  _762
REMARK  319  A    between atoms: _767  and  _769
REMARK  320  A    between atoms: _769  and  _770
REMARK  321  A    between atoms: _769  and  _772
REMARK  322  A    between atoms: _772  and  _773
REMARK  323  A    between atoms: _773  and  _774
REMARK  324  A    between atoms: _774  and  _775
REMARK  325  A    between atoms: _784  and  _786
REMARK  326  A    between atoms: _786  and  _787
REMARK  327  A    between atoms: _786  and  _789
REMARK  328  A    between atoms: _789  and  _790
REMARK  329  A    between atoms: _790  and  _791
REMARK  330  A    between atoms: _794  and  _796
REMARK  331  A    between atoms: _796  and  _797
REMARK  332  A    between atoms: _796  and  _799
REMARK  333  A    between atoms: _802  and  _804
REMARK  334  A    between atoms: _804  and  _805
REMARK  335  A    between atoms: _804  and  _807
REMARK  336  A    between atoms: _807  and  _808
REMARK                            x       y       z     vdW  Elec       q    Type
REMARK                         _______ _______ _______ _____ _____    ______ ____
ROOT
ATOM      1  O   HOH     1       9.477  14.782 -14.256  0.00  0.00    +0.000 OA
ENDROOT
TORSDOF 0
REMARK  Name = ../refined-set-2016/1i5r/1i5r_pocket.pdb
REMARK  336 active torsions:
REMARK  status: ('A' for Active; 'I' for Inactive)
REMARK    1  A    between atoms: _1  and  _3
REMARK    2  A    between atoms: _3  and  _4
REMARK    3  A    between atoms: _3  and  _6
REMARK    4  A    between atoms: _6  and  _7
REMARK    5  A    between atoms: _10  and  _12
REMARK    6  A    between atoms: _12  and  _13
REMARK    7  A    between atoms: _12  and  _15
REMARK    8  A    between atoms: _15  and  _16
REMARK    9  A    between atoms: _19  and  _21
REMARK   10  A    between atoms: _21  and  _22
REMARK   11  A    between atoms: _24  and  _26
REMARK   12  A    between atoms: _26  and  _27
REMARK   13  A    between atoms: _26  and  _29
REMARK   14  A    between atoms: _31  and  _33
REMARK   15  A    between atoms: _33  and  _34
REMARK   16  A    between atoms: _33  and  _36
REMARK   17  A    between atoms: _36  and  _37
REMARK   18  A    between atoms: _39  and  _41
REMARK   19  A    between atoms: _41  and  _42
REMARK   20  A    between atoms: _41  and  _44
REMARK   21  A    between atoms: _44  and  _45
REMARK   22  A    between atoms: _47  and  _49
REMARK   23  A    between atoms: _49  and  _50
REMARK   24  A    between atoms: _52  and  _54
REMARK   25  A    between atoms: _54  and  _55
REMARK   26  A    between atoms: _54  and  _57
REMARK   27  A    between atoms: _57  and  _58
REMARK   28  A    between atoms: _61  and  _63
REMARK   29  A    between atoms: _63  and  _64
REMARK   30  A    between atoms: _66  and  _68
REMARK   31  A    between atoms: _68  and  _69
REMARK   32  A    between atoms: _68  and  _71
REMARK   33  A    between atoms: _71  and  _72
REMARK   34  A    between atoms: _75  and  _77
REMARK   35  A    between atoms: _77  and  _78
REMARK   36  A    between atoms: _77  and  _80
REMARK   37  A    between atoms: _80  and  _81
REMARK   38  A    between atoms: _86  and  _88
REMARK   39  A    between atoms: _88  and  _89
REMARK   40  A    between atoms: _88  and  _91
REMARK   41  A    between atoms: _91  and  _92
REMARK   42  A    between atoms: _95  and  _97
REMARK   43  A    between atoms: _97  and  _98
REMARK   44  A    between atoms: _97  and  _100
REMARK   45  A    between atoms: _100  and  _101
REMARK   46  A    between atoms: _104  and  _106
REMARK   47  A    between atoms: _106  and  _107
REMARK   48  A    between atoms: _106  and  _109
REMARK   49  A    between atoms: _109  and  _110
REMARK   50  A    between atoms: _110  and  _111
REMARK   51  A    between atoms: _111  and  _112
REMARK   52  A    between atoms: _121  and  _123
REMARK   53  A    between atoms: _123  and  _124
REMARK   54  A    between atoms: _123  and  _126
REMARK   55  A    between atoms: _126  and  _127
REMARK   56  A    between atoms: _130  and  _132
REMARK   57  A    between atoms: _132  and  _133
REMARK   58  A    between atoms: _132  and  _135
REMARK   59  A    between atoms: _135  and  _136
REMARK   60  A    between atoms: _139  and  _141
REMARK   61  A    between atoms: _141  and  _142
REMARK   62  A    between atoms: _141  and  _144
REMARK   63  A    between atoms: _144  and  _145
REMARK   64  A    between atoms: _145  and  _146
REMARK   65  A    between atoms: _146  and  _147
REMARK   66  A    between atoms: _156  and  _158
REMARK   67  A    between atoms: _158  and  _159
REMARK   68  A    between atoms: _158  and  _161
REMARK   69  A    between atoms: _161  and  _162
REMARK   70  A    between atoms: _165  and  _167
REMARK   71  A    between atoms: _167  and  _168
REMARK   72  A    between atoms: _167  and  _170
REMARK   73  A    between atoms: _170  and  _171
REMARK   74  A    between atoms: _171  and  _172
REMARK   75  A    between atoms: _177  and  _179
REMARK   76  A    between atoms: _179  and  _180
REMARK   77  A    between atoms: _179  and  _182
REMARK   78  A    between atoms: _182  and  _183
REMARK   79  A    between atoms: _186  and  _188
REMARK   80  A    between atoms: _188  and  _189
REMARK   81  A    between atoms: _188  and  _191
REMARK   82  A    between atoms: _191  and  _192
REMARK   83  A    between atoms: _195  and  _197
REMARK   84  A    between atoms: _197  and  _198
REMARK   85  A    between atoms: _197  and  _200
REMARK   86  A    between atoms: _203  and  _205
REMARK   87  A    between atoms: _205  and  _206
REMARK   88  A    between atoms: _205  and  _208
REMARK   89  A    between atoms: _208  and  _209
REMARK   90  A    between atoms: _209  and  _210
REMARK   91  A    between atoms: _210  and  _211
REMARK   92  A    between atoms: _220  and  _222
REMARK   93  A    between atoms: _222  and  _223
REMARK   94  A    between atoms: _222  and  _225
REMARK   95  A    between atoms: _225  and  _226
REMARK   96  A    between atoms: _229  and  _231
REMARK   97  A    between atoms: _231  and  _232
REMARK   98  A    between atoms: _231  and  _234
REMARK   99  A    between atoms: _234  and  _235
REMARK  100  A    between atoms: _237  and  _239
REMARK  101  A    between atoms: _239  and  _240
REMARK  102  A    between atoms: _239  and  _242
REMARK  103  A    between atoms: _245  and  _247
REMARK  104  A    between atoms: _247  and  _248
REMARK  105  A    between atoms: _247  and  _250
REMARK  106  A    between atoms: _252  and  _254
REMARK  107  A    between atoms: _254  and  _255
REMARK  108  A    between atoms: _254  and  _257
REMARK  109  A    between atoms: _257  and  _258
REMARK  110  A    between atoms: _263  and  _265
REMARK  111  A    between atoms: _265  and  _266
REMARK  112  A    between atoms: _269  and  _271
REMARK  113  A    between atoms: _271  and  _272
REMARK  114  A    between atoms: _274  and  _276
REMARK  115  A    between atoms: _276  and  _277
REMARK  116  A    between atoms: _276  and  _279
REMARK  117  A    between atoms: _279  and  _280
REMARK  118  A    between atoms: _283  and  _285
REMARK  119  A    between atoms: _285  and  _286
REMARK  120  A    between atoms: _288  and  _290
REMARK  121  A    between atoms: _290  and  _291
REMARK  122  A    between atoms: _290  and  _293
REMARK  123  A    between atoms: _293  and  _294
REMARK  124  A    between atoms: _297  and  _299
REMARK  125  A    between atoms: _299  and  _300
REMARK  126  A    between atoms: _299  and  _302
REMARK  127  A    between atoms: _302  and  _303
REMARK  128  A    between atoms: _306  and  _308
REMARK  129  A    between atoms: _308  and  _309
REMARK  130  A    between atoms: _308  and  _311
REMARK  131  A    between atoms: _311  and  _312
REMARK  132  A    between atoms: _314  and  _316
REMARK  133  A    between atoms: _316  and  _317
REMARK  134  A    between atoms: _316  and  _319
REMARK  135  A    between atoms: _319  and  _320
REMARK  136  A    between atoms: _323  and  _325
REMARK  137  A    between atoms: _325  and  _326
REMARK  138  A    between atoms: _325  and  _328
REMARK  139  A    between atoms: _331  and  _333
REMARK  140  A    between atoms: _333  and  _334
REMARK  141  A    between atoms: _333  and  _336
REMARK  142  A    between atoms: _336  and  _337
REMARK  143  A    between atoms: _342  and  _344
REMARK  144  A    between atoms: _344  and  _345
REMARK  145  A    between atoms: _347  and  _349
REMARK  146  A    between atoms: _349  and  _350
REMARK  147  A    between atoms: _349  and  _352
REMARK  148  A    between atoms: _352  and  _353
REMARK  149  A    between atoms: _353  and  _354
REMARK  150  A    between atoms: _354  and  _355
REMARK  151  A    between atoms: _364  and  _366
REMARK  152  A    between atoms: _366  and  _367
REMARK  153  A    between atoms: _366  and  _369
REMARK  154  A    between atoms: _369  and  _370
REMARK  155  A    between atoms: _370  and  _371
REMARK  156  A    between atoms: _373  and  _375
REMARK  157  A    between atoms: _375  and  _376
REMARK  158  A    between atoms: _375  and  _378
REMARK  159  A    between atoms: _378  and  _379
REMARK  160  A    between atoms: _382  and  _384
REMARK  161  A    between atoms: _384  and  _385
REMARK  162  A    between atoms: _387  and  _389
REMARK  163  A    between atoms: _389  and  _390
REMARK  164  A    between atoms: _389  and  _392
REMARK  165  A    between atoms: _392  and  _393
REMARK  166  A    between atoms: _395  and  _397
REMARK  167  A    between atoms: _397  and  _398
REMARK  168  A    between atoms: _397  and  _400
REMARK  169  A    between atoms: _403  and  _405
REMARK  170  A    between atoms: _405  and  _406
REMARK  171  A    between atoms: _408  and  _410
REMARK  172  A    between atoms: _410  and  _411
REMARK  173  A    between atoms: _413  and  _415
REMARK  174  A    between atoms: _415  and  _416
REMARK  175  A    between atoms: _415  and  _418
REMARK  176  A    between atoms: _418  and  _419
REMARK  177  A    between atoms: _422  and  _424
REMARK  178  A    between atoms: _424  and  _425
REMARK  179  A    between atoms: _424  and  _427
REMARK  180  A    between atoms: _427  and  _428
REMARK  181  A    between atoms: _428  and  _429
REMARK  182  A    between atoms: _431  and  _433
REMARK  183  A    between atoms: _433  and  _434
REMARK  184  A    between atoms: _436  and  _438
REMARK  185  A    between atoms: _438  and  _439
REMARK  186  A    between atoms: _438  and  _441
REMARK  187  A    between atoms: _441  and  _442
REMARK  188  A    between atoms: _446  and  _447
REMARK  189  A    between atoms: _452  and  _454
REMARK  190  A    between atoms: _454  and  _455
REMARK  191  A    between atoms: _454  and  _457
REMARK  192  A    between atoms: _457  and  _458
REMARK  193  A    between atoms: _463  and  _465
REMARK  194  A    between atoms: _465  and  _466
REMARK  195  A    between atoms: _465  and  _468
REMARK  196  A    between atoms: _468  and  _469
REMARK  197  A    between atoms: _474  and  _475
REMARK  198  A    between atoms: _477  and  _479
REMARK  199  A    between atoms: _479  and  _480
REMARK  200  A    between atoms: _479  and  _482
REMARK  201  A    between atoms: _484  and  _486
REMARK  202  A    between atoms: _486  and  _487
REMARK  203  A    between atoms: _486  and  _489
REMARK  204  A    between atoms: _489  and  _490
REMARK  205  A    between atoms: _490  and  _491
REMARK  206  A    between atoms: _491  and  _492
REMARK  207  A    between atoms: _492  and  _493
REMARK  208  A    between atoms: _497  and  _499
REMARK  209  A    between atoms: _499  and  _500
REMARK  210  A    between atoms: _499  and  _502
REMARK  211  A    between atoms: _502  and  _503
REMARK  212  A    between atoms: _503  and  _504
REMARK  213  A    between atoms: _507  and  _509
REMARK  214  A    between atoms: _509  and  _510
REMARK  215  A    between atoms: _509  and  _512
REMARK  216  A    between atoms: _514  and  _516
REMARK  217  A    between atoms: _516  and  _517
REMARK  218  A    between atoms: _520  and  _521
REMARK  219  A    between atoms: _526  and  _528
REMARK  220  A    between atoms: _528  and  _529
REMARK  221  A    between atoms: _528  and  _531
REMARK  222  A    between atoms: _534  and  _536
REMARK  223  A    between atoms: _536  and  _537
REMARK  224  A    between atoms: _536  and  _539
REMARK  225  A    between atoms: _539  and  _540
REMARK  226  A    between atoms: _543  and  _545
REMARK  227  A    between atoms: _545  and  _546
REMARK  228  A    between atoms: _545  and  _548
REMARK  229  A    between atoms: _548  and  _549
REMARK  230  A    between atoms: _555  and  _557
REMARK  231  A    between atoms: _557  and  _558
REMARK  232  A    between atoms: _557  and  _560
REMARK  233  A    between atoms: _560  and  _561
REMARK  234  A    between atoms: _561  and  _562
REMARK  235  A    between atoms: _564  and  _566
REMARK  236  A    between atoms: _566  and  _567
REMARK  237  A    between atoms: _566  and  _569
REMARK  238  A    between atoms: _569  and  _570
REMARK  239  A    between atoms: _570  and  _571
REMARK  240  A    between atoms: _574  and  _576
REMARK  241  A    between atoms: _576  and  _577
REMARK  242  A    between atoms: _576  and  _579
REMARK  243  A    between atoms: _579  and  _580
REMARK  244  A    between atoms: _580  and  _581
REMARK  245  A    between atoms: _581  and  _582
REMARK  246  A    between atoms: _582  and  _583
REMARK  247  A    between atoms: _587  and  _589
REMARK  248  A    between atoms: _589  and  _590
REMARK  249  A    between atoms: _589  and  _592
REMARK  250  A    between atoms: _592  and  _593
REMARK  251  A    between atoms: _598  and  _599
REMARK  252  A    between atoms: _601  and  _603
REMARK  253  A    between atoms: _603  and  _604
REMARK  254  A    between atoms: _603  and  _606
REMARK  255  A    between atoms: _606  and  _607
REMARK  256  A    between atoms: _610  and  _612
REMARK  257  A    between atoms: _612  and  _613
REMARK  258  A    between atoms: _612  and  _615
REMARK  259  A    between atoms: _615  and  _616
REMARK  260  A    between atoms: _621  and  _623
REMARK  261  A    between atoms: _623  and  _624
REMARK  262  A    between atoms: _623  and  _626
REMARK  263  A    between atoms: _626  and  _627
REMARK  264  A    between atoms: _629  and  _631
REMARK  265  A    between atoms: _631  and  _632
REMARK  266  A    between atoms: _631  and  _634
REMARK  267  A    between atoms: _634  and  _635
REMARK  268  A    between atoms: _635  and  _636
REMARK  269  A    between atoms: _636  and  _637
REMARK  270  A    between atoms: _637  and  _638
REMARK  271  A    between atoms: _642  and  _644
REMARK  272  A    between atoms: _644  and  _645
REMARK  273  A    between atoms: _644  and  _647
REMARK  274  A    between atoms: _647  and  _648
REMARK  275  A    between atoms: _648  and  _649
REMARK  276  A    between atoms: _654  and  _656
REMARK  277  A    between atoms: _656  and  _657
REMARK  278  A    between atoms: _656  and  _659
REMARK  279  A    between atoms: _662  and  _664
REMARK  280  A    between atoms: _664  and  _665
REMARK  281  A    between atoms: _664  and  _667
REMARK  282  A    between atoms: _667  and  _668
REMARK  283  A    between atoms: _674  and  _676
REMARK  284  A    between atoms: _676  and  _677
REMARK  285  A    between atoms: _680  and  _682
REMARK  286  A    between atoms: _682  and  _683
REMARK  287  A    between atoms: _682  and  _685
REMARK  288  A    between atoms: _685  and  _686
REMARK  289  A    between atoms: _689  and  _691
REMARK  290  A    between atoms: _691  and  _692
REMARK  291  A    between atoms: _691  and  _694
REMARK  292  A    between atoms: _694  and  _695
REMARK  293  A    between atoms: _695  and  _696
REMARK  294  A    between atoms: _696  and  _697
REMARK  295  A    between atoms: _706  and  _708
REMARK  296  A    between atoms: _708  and  _709
REMARK  297  A    between atoms: _708  and  _711
REMARK  298  A    between atoms: _711  and  _712
REMARK  299  A    between atoms: _718  and  _720
REMARK  300  A    between atoms: _720  and  _721
REMARK  301  A    between atoms: _720  and  _723
REMARK  302  A    between atoms: _723  and  _724
REMARK  303  A    between atoms: _727  and  _729
REMARK  304  A    between atoms: _729  and  _730
REMARK  305  A    between atoms: _729  and  _732
REMARK  306  A    between atoms: _732  and  _733
REMARK  307  A    between atoms: _738  and  _739
REMARK  308  A    between atoms: _741  and  _743
REMARK  309  A    between atoms: _743  and  _744
REMARK  310  A    between atoms: _747  and  _749
REMARK  311  A    between atoms: _749  and  _750
REMARK  312  A    between atoms: _749  and  _752
REMARK  313  A    between atoms: _752  and  _753
REMARK  314  A    between atoms: _753  and  _754
REMARK  315  A    between atoms: _756  and  _758
REMARK  316  A    between atoms: _758  and  _759
REMARK  317  A    between atoms: _758  and  _761
REMARK  318  A    between atoms: _761  and  _762
REMARK  319  A    between atoms: _767  and  _769
REMARK  320  A    between atoms: _769  and  _770
REMARK  321  A    between atoms: _769  and  _772
REMARK  322  A    between atoms: _772  and  _773
REMARK  323  A    between atoms: _773  and  _774
REMARK  324  A    between atoms: _774  and  _775
REMARK  325  A    between atoms: _784  and  _786
REMARK  326  A    between atoms: _786  and  _787
REMARK  327  A    between atoms: _786  and  _789
REMARK  328  A    between atoms: _789  and  _790
REMARK  329  A    between atoms: _790  and  _791
REMARK  330  A    between atoms: _794  and  _796
REMARK  331  A    between atoms: _796  and  _797
REMARK  332  A    between atoms: _796  and  _799
REMARK  333  A    between atoms: _802  and  _804
REMARK  334  A    between atoms: _804  and  _805
REMARK  335  A    between atoms: _804  and  _807
REMARK  336  A    between atoms: _807  and  _808
REMARK                            x       y       z     vdW  Elec       q    Type
REMARK                         _______ _______ _______ _____ _____    ______ ____
ROOT
ATOM      1  O   HOH     1      10.004  13.265 -21.165  0.00  0.00    +0.000 OA
ENDROOT
TORSDOF 0
REMARK  Name = ../refined-set-2016/1i5r/1i5r_pocket.pdb
REMARK  336 active torsions:
REMARK  status: ('A' for Active; 'I' for Inactive)
REMARK    1  A    between atoms: _1  and  _3
REMARK    2  A    between atoms: _3  and  _4
REMARK    3  A    between atoms: _3  and  _6
REMARK    4  A    between atoms: _6  and  _7
REMARK    5  A    between atoms: _10  and  _12
REMARK    6  A    between atoms: _12  and  _13
REMARK    7  A    between atoms: _12  and  _15
REMARK    8  A    between atoms: _15  and  _16
REMARK    9  A    between atoms: _19  and  _21
REMARK   10  A    between atoms: _21  and  _22
REMARK   11  A    between atoms: _24  and  _26
REMARK   12  A    between atoms: _26  and  _27
REMARK   13  A    between atoms: _26  and  _29
REMARK   14  A    between atoms: _31  and  _33
REMARK   15  A    between atoms: _33  and  _34
REMARK   16  A    between atoms: _33  and  _36
REMARK   17  A    between atoms: _36  and  _37
REMARK   18  A    between atoms: _39  and  _41
REMARK   19  A    between atoms: _41  and  _42
REMARK   20  A    between atoms: _41  and  _44
REMARK   21  A    between atoms: _44  and  _45
REMARK   22  A    between atoms: _47  and  _49
REMARK   23  A    between atoms: _49  and  _50
REMARK   24  A    between atoms: _52  and  _54
REMARK   25  A    between atoms: _54  and  _55
REMARK   26  A    between atoms: _54  and  _57
REMARK   27  A    between atoms: _57  and  _58
REMARK   28  A    between atoms: _61  and  _63
REMARK   29  A    between atoms: _63  and  _64
REMARK   30  A    between atoms: _66  and  _68
REMARK   31  A    between atoms: _68  and  _69
REMARK   32  A    between atoms: _68  and  _71
REMARK   33  A    between atoms: _71  and  _72
REMARK   34  A    between atoms: _75  and  _77
REMARK   35  A    between atoms: _77  and  _78
REMARK   36  A    between atoms: _77  and  _80
REMARK   37  A    between atoms: _80  and  _81
REMARK   38  A    between atoms: _86  and  _88
REMARK   39  A    between atoms: _88  and  _89
REMARK   40  A    between atoms: _88  and  _91
REMARK   41  A    between atoms: _91  and  _92
REMARK   42  A    between atoms: _95  and  _97
REMARK   43  A    between atoms: _97  and  _98
REMARK   44  A    between atoms: _97  and  _100
REMARK   45  A    between atoms: _100  and  _101
REMARK   46  A    between atoms: _104  and  _106
REMARK   47  A    between atoms: _106  and  _107
REMARK   48  A    between atoms: _106  and  _109
REMARK   49  A    between atoms: _109  and  _110
REMARK   50  A    between atoms: _110  and  _111
REMARK   51  A    between atoms: _111  and  _112
REMARK   52  A    between atoms: _121  and  _123
REMARK   53  A    between atoms: _123  and  _124
REMARK   54  A    between atoms: _123  and  _126
REMARK   55  A    between atoms: _126  and  _127
REMARK   56  A    between atoms: _130  and  _132
REMARK   57  A    between atoms: _132  and  _133
REMARK   58  A    between atoms: _132  and  _135
REMARK   59  A    between atoms: _135  and  _136
REMARK   60  A    between atoms: _139  and  _141
REMARK   61  A    between atoms: _141  and  _142
REMARK   62  A    between atoms: _141  and  _144
REMARK   63  A    between atoms: _144  and  _145
REMARK   64  A    between atoms: _145  and  _146
REMARK   65  A    between atoms: _146  and  _147
REMARK   66  A    between atoms: _156  and  _158
REMARK   67  A    between atoms: _158  and  _159
REMARK   68  A    between atoms: _158  and  _161
REMARK   69  A    between atoms: _161  and  _162
REMARK   70  A    between atoms: _165  and  _167
REMARK   71  A    between atoms: _167  and  _168
REMARK   72  A    between atoms: _167  and  _170
REMARK   73  A    between atoms: _170  and  _171
REMARK   74  A    between atoms: _171  and  _172
REMARK   75  A    between atoms: _177  and  _179
REMARK   76  A    between atoms: _179  and  _180
REMARK   77  A    between atoms: _179  and  _182
REMARK   78  A    between atoms: _182  and  _183
REMARK   79  A    between atoms: _186  and  _188
REMARK   80  A    between atoms: _188  and  _189
REMARK   81  A    between atoms: _188  and  _191
REMARK   82  A    between atoms: _191  and  _192
REMARK   83  A    between atoms: _195  and  _197
REMARK   84  A    between atoms: _197  and  _198
REMARK   85  A    between atoms: _197  and  _200
REMARK   86  A    between atoms: _203  and  _205
REMARK   87  A    between atoms: _205  and  _206
REMARK   88  A    between atoms: _205  and  _208
REMARK   89  A    between atoms: _208  and  _209
REMARK   90  A    between atoms: _209  and  _210
REMARK   91  A    between atoms: _210  and  _211
REMARK   92  A    between atoms: _220  and  _222
REMARK   93  A    between atoms: _222  and  _223
REMARK   94  A    between atoms: _222  and  _225
REMARK   95  A    between atoms: _225  and  _226
REMARK   96  A    between atoms: _229  and  _231
REMARK   97  A    between atoms: _231  and  _232
REMARK   98  A    between atoms: _231  and  _234
REMARK   99  A    between atoms: _234  and  _235
REMARK  100  A    between atoms: _237  and  _239
REMARK  101  A    between atoms: _239  and  _240
REMARK  102  A    between atoms: _239  and  _242
REMARK  103  A    between atoms: _245  and  _247
REMARK  104  A    between atoms: _247  and  _248
REMARK  105  A    between atoms: _247  and  _250
REMARK  106  A    between atoms: _252  and  _254
REMARK  107  A    between atoms: _254  and  _255
REMARK  108  A    between atoms: _254  and  _257
REMARK  109  A    between atoms: _257  and  _258
REMARK  110  A    between atoms: _263  and  _265
REMARK  111  A    between atoms: _265  and  _266
REMARK  112  A    between atoms: _269  and  _271
REMARK  113  A    between atoms: _271  and  _272
REMARK  114  A    between atoms: _274  and  _276
REMARK  115  A    between atoms: _276  and  _277
REMARK  116  A    between atoms: _276  and  _279
REMARK  117  A    between atoms: _279  and  _280
REMARK  118  A    between atoms: _283  and  _285
REMARK  119  A    between atoms: _285  and  _286
REMARK  120  A    between atoms: _288  and  _290
REMARK  121  A    between atoms: _290  and  _291
REMARK  122  A    between atoms: _290  and  _293
REMARK  123  A    between atoms: _293  and  _294
REMARK  124  A    between atoms: _297  and  _299
REMARK  125  A    between atoms: _299  and  _300
REMARK  126  A    between atoms: _299  and  _302
REMARK  127  A    between atoms: _302  and  _303
REMARK  128  A    between atoms: _306  and  _308
REMARK  129  A    between atoms: _308  and  _309
REMARK  130  A    between atoms: _308  and  _311
REMARK  131  A    between atoms: _311  and  _312
REMARK  132  A    between atoms: _314  and  _316
REMARK  133  A    between atoms: _316  and  _317
REMARK  134  A    between atoms: _316  and  _319
REMARK  135  A    between atoms: _319  and  _320
REMARK  136  A    between atoms: _323  and  _325
REMARK  137  A    between atoms: _325  and  _326
REMARK  138  A    between atoms: _325  and  _328
REMARK  139  A    between atoms: _331  and  _333
REMARK  140  A    between atoms: _333  and  _334
REMARK  141  A    between atoms: _333  and  _336
REMARK  142  A    between atoms: _336  and  _337
REMARK  143  A    between atoms: _342  and  _344
REMARK  144  A    between atoms: _344  and  _345
REMARK  145  A    between atoms: _347  and  _349
REMARK  146  A    between atoms: _349  and  _350
REMARK  147  A    between atoms: _349  and  _352
REMARK  148  A    between atoms: _352  and  _353
REMARK  149  A    between atoms: _353  and  _354
REMARK  150  A    between atoms: _354  and  _355
REMARK  151  A    between atoms: _364  and  _366
REMARK  152  A    between atoms: _366  and  _367
REMARK  153  A    between atoms: _366  and  _369
REMARK  154  A    between atoms: _369  and  _370
REMARK  155  A    between atoms: _370  and  _371
REMARK  156  A    between atoms: _373  and  _375
REMARK  157  A    between atoms: _375  and  _376
REMARK  158  A    between atoms: _375  and  _378
REMARK  159  A    between atoms: _378  and  _379
REMARK  160  A    between atoms: _382  and  _384
REMARK  161  A    between atoms: _384  and  _385
REMARK  162  A    between atoms: _387  and  _389
REMARK  163  A    between atoms: _389  and  _390
REMARK  164  A    between atoms: _389  and  _392
REMARK  165  A    between atoms: _392  and  _393
REMARK  166  A    between atoms: _395  and  _397
REMARK  167  A    between atoms: _397  and  _398
REMARK  168  A    between atoms: _397  and  _400
REMARK  169  A    between atoms: _403  and  _405
REMARK  170  A    between atoms: _405  and  _406
REMARK  171  A    between atoms: _408  and  _410
REMARK  172  A    between atoms: _410  and  _411
REMARK  173  A    between atoms: _413  and  _415
REMARK  174  A    between atoms: _415  and  _416
REMARK  175  A    between atoms: _415  and  _418
REMARK  176  A    between atoms: _418  and  _419
REMARK  177  A    between atoms: _422  and  _424
REMARK  178  A    between atoms: _424  and  _425
REMARK  179  A    between atoms: _424  and  _427
REMARK  180  A    between atoms: _427  and  _428
REMARK  181  A    between atoms: _428  and  _429
REMARK  182  A    between atoms: _431  and  _433
REMARK  183  A    between atoms: _433  and  _434
REMARK  184  A    between atoms: _436  and  _438
REMARK  185  A    between atoms: _438  and  _439
REMARK  186  A    between atoms: _438  and  _441
REMARK  187  A    between atoms: _441  and  _442
REMARK  188  A    between atoms: _446  and  _447
REMARK  189  A    between atoms: _452  and  _454
REMARK  190  A    between atoms: _454  and  _455
REMARK  191  A    between atoms: _454  and  _457
REMARK  192  A    between atoms: _457  and  _458
REMARK  193  A    between atoms: _463  and  _465
REMARK  194  A    between atoms: _465  and  _466
REMARK  195  A    between atoms: _465  and  _468
REMARK  196  A    between atoms: _468  and  _469
REMARK  197  A    between atoms: _474  and  _475
REMARK  198  A    between atoms: _477  and  _479
REMARK  199  A    between atoms: _479  and  _480
REMARK  200  A    between atoms: _479  and  _482
REMARK  201  A    between atoms: _484  and  _486
REMARK  202  A    between atoms: _486  and  _487
REMARK  203  A    between atoms: _486  and  _489
REMARK  204  A    between atoms: _489  and  _490
REMARK  205  A    between atoms: _490  and  _491
REMARK  206  A    between atoms: _491  and  _492
REMARK  207  A    between atoms: _492  and  _493
REMARK  208  A    between atoms: _497  and  _499
REMARK  209  A    between atoms: _499  and  _500
REMARK  210  A    between atoms: _499  and  _502
REMARK  211  A    between atoms: _502  and  _503
REMARK  212  A    between atoms: _503  and  _504
REMARK  213  A    between atoms: _507  and  _509
REMARK  214  A    between atoms: _509  and  _510
REMARK  215  A    between atoms: _509  and  _512
REMARK  216  A    between atoms: _514  and  _516
REMARK  217  A    between atoms: _516  and  _517
REMARK  218  A    between atoms: _520  and  _521
REMARK  219  A    between atoms: _526  and  _528
REMARK  220  A    between atoms: _528  and  _529
REMARK  221  A    between atoms: _528  and  _531
REMARK  222  A    between atoms: _534  and  _536
REMARK  223  A    between atoms: _536  and  _537
REMARK  224  A    between atoms: _536  and  _539
REMARK  225  A    between atoms: _539  and  _540
REMARK  226  A    between atoms: _543  and  _545
REMARK  227  A    between atoms: _545  and  _546
REMARK  228  A    between atoms: _545  and  _548
REMARK  229  A    between atoms: _548  and  _549
REMARK  230  A    between atoms: _555  and  _557
REMARK  231  A    between atoms: _557  and  _558
REMARK  232  A    between atoms: _557  and  _560
REMARK  233  A    between atoms: _560  and  _561
REMARK  234  A    between atoms: _561  and  _562
REMARK  235  A    between atoms: _564  and  _566
REMARK  236  A    between atoms: _566  and  _567
REMARK  237  A    between atoms: _566  and  _569
REMARK  238  A    between atoms: _569  and  _570
REMARK  239  A    between atoms: _570  and  _571
REMARK  240  A    between atoms: _574  and  _576
REMARK  241  A    between atoms: _576  and  _577
REMARK  242  A    between atoms: _576  and  _579
REMARK  243  A    between atoms: _579  and  _580
REMARK  244  A    between atoms: _580  and  _581
REMARK  245  A    between atoms: _581  and  _582
REMARK  246  A    between atoms: _582  and  _583
REMARK  247  A    between atoms: _587  and  _589
REMARK  248  A    between atoms: _589  and  _590
REMARK  249  A    between atoms: _589  and  _592
REMARK  250  A    between atoms: _592  and  _593
REMARK  251  A    between atoms: _598  and  _599
REMARK  252  A    between atoms: _601  and  _603
REMARK  253  A    between atoms: _603  and  _604
REMARK  254  A    between atoms: _603  and  _606
REMARK  255  A    between atoms: _606  and  _607
REMARK  256  A    between atoms: _610  and  _612
REMARK  257  A    between atoms: _612  and  _613
REMARK  258  A    between atoms: _612  and  _615
REMARK  259  A    between atoms: _615  and  _616
REMARK  260  A    between atoms: _621  and  _623
REMARK  261  A    between atoms: _623  and  _624
REMARK  262  A    between atoms: _623  and  _626
REMARK  263  A    between atoms: _626  and  _627
REMARK  264  A    between atoms: _629  and  _631
REMARK  265  A    between atoms: _631  and  _632
REMARK  266  A    between atoms: _631  and  _634
REMARK  267  A    between atoms: _634  and  _635
REMARK  268  A    between atoms: _635  and  _636
REMARK  269  A    between atoms: _636  and  _637
REMARK  270  A    between atoms: _637  and  _638
REMARK  271  A    between atoms: _642  and  _644
REMARK  272  A    between atoms: _644  and  _645
REMARK  273  A    between atoms: _644  and  _647
REMARK  274  A    between atoms: _647  and  _648
REMARK  275  A    between atoms: _648  and  _649
REMARK  276  A    between atoms: _654  and  _656
REMARK  277  A    between atoms: _656  and  _657
REMARK  278  A    between atoms: _656  and  _659
REMARK  279  A    between atoms: _662  and  _664
REMARK  280  A    between atoms: _664  and  _665
REMARK  281  A    between atoms: _664  and  _667
REMARK  282  A    between atoms: _667  and  _668
REMARK  283  A    between atoms: _674  and  _676
REMARK  284  A    between atoms: _676  and  _677
REMARK  285  A    between atoms: _680  and  _682
REMARK  286  A    between atoms: _682  and  _683
REMARK  287  A    between atoms: _682  and  _685
REMARK  288  A    between atoms: _685  and  _686
REMARK  289  A    between atoms: _689  and  _691
REMARK  290  A    between atoms: _691  and  _692
REMARK  291  A    between atoms: _691  and  _694
REMARK  292  A    between atoms: _694  and  _695
REMARK  293  A    between atoms: _695  and  _696
REMARK  294  A    between atoms: _696  and  _697
REMARK  295  A    between atoms: _706  and  _708
REMARK  296  A    between atoms: _708  and  _709
REMARK  297  A    between atoms: _708  and  _711
REMARK  298  A    between atoms: _711  and  _712
REMARK  299  A    between atoms: _718  and  _720
REMARK  300  A    between atoms: _720  and  _721
REMARK  301  A    between atoms: _720  and  _723
REMARK  302  A    between atoms: _723  and  _724
REMARK  303  A    between atoms: _727  and  _729
REMARK  304  A    between atoms: _729  and  _730
REMARK  305  A    between atoms: _729  and  _732
REMARK  306  A    between atoms: _732  and  _733
REMARK  307  A    between atoms: _738  and  _739
REMARK  308  A    between atoms: _741  and  _743
REMARK  309  A    between atoms: _743  and  _744
REMARK  310  A    between atoms: _747  and  _749
REMARK  311  A    between atoms: _749  and  _750
REMARK  312  A    between atoms: _749  and  _752
REMARK  313  A    between atoms: _752  and  _753
REMARK  314  A    between atoms: _753  and  _754
REMARK  315  A    between atoms: _756  and  _758
REMARK  316  A    between atoms: _758  and  _759
REMARK  317  A    between atoms: _758  and  _761
REMARK  318  A    between atoms: _761  and  _762
REMARK  319  A    between atoms: _767  and  _769
REMARK  320  A    between atoms: _769  and  _770
REMARK  321  A    between atoms: _769  and  _772
REMARK  322  A    between atoms: _772  and  _773
REMARK  323  A    between atoms: _773  and  _774
REMARK  324  A    between atoms: _774  and  _775
REMARK  325  A    between atoms: _784  and  _786
REMARK  326  A    between atoms: _786  and  _787
REMARK  327  A    between atoms: _786  and  _789
REMARK  328  A    between atoms: _789  and  _790
REMARK  329  A    between atoms: _790  and  _791
REMARK  330  A    between atoms: _794  and  _796
REMARK  331  A    between atoms: _796  and  _797
REMARK  332  A    between atoms: _796  and  _799
REMARK  333  A    between atoms: _802  and  _804
REMARK  334  A    between atoms: _804  and  _805
REMARK  335  A    between atoms: _804  and  _807
REMARK  336  A    between atoms: _807  and  _808
REMARK                            x       y       z     vdW  Elec       q    Type
REMARK                         _______ _______ _______ _____ _____    ______ ____
ROOT
ATOM      1  O   HOH     1      11.916   1.860  -3.947  0.00  0.00    +0.000 OA
ENDROOT
TORSDOF 0
REMARK  Name = ../refined-set-2016/1i5r/1i5r_pocket.pdb
REMARK  336 active torsions:
REMARK  status: ('A' for Active; 'I' for Inactive)
REMARK    1  A    between atoms: _1  and  _3
REMARK    2  A    between atoms: _3  and  _4
REMARK    3  A    between atoms: _3  and  _6
REMARK    4  A    between atoms: _6  and  _7
REMARK    5  A    between atoms: _10  and  _12
REMARK    6  A    between atoms: _12  and  _13
REMARK    7  A    between atoms: _12  and  _15
REMARK    8  A    between atoms: _15  and  _16
REMARK    9  A    between atoms: _19  and  _21
REMARK   10  A    between atoms: _21  and  _22
REMARK   11  A    between atoms: _24  and  _26
REMARK   12  A    between atoms: _26  and  _27
REMARK   13  A    between atoms: _26  and  _29
REMARK   14  A    between atoms: _31  and  _33
REMARK   15  A    between atoms: _33  and  _34
REMARK   16  A    between atoms: _33  and  _36
REMARK   17  A    between atoms: _36  and  _37
REMARK   18  A    between atoms: _39  and  _41
REMARK   19  A    between atoms: _41  and  _42
REMARK   20  A    between atoms: _41  and  _44
REMARK   21  A    between atoms: _44  and  _45
REMARK   22  A    between atoms: _47  and  _49
REMARK   23  A    between atoms: _49  and  _50
REMARK   24  A    between atoms: _52  and  _54
REMARK   25  A    between atoms: _54  and  _55
REMARK   26  A    between atoms: _54  and  _57
REMARK   27  A    between atoms: _57  and  _58
REMARK   28  A    between atoms: _61  and  _63
REMARK   29  A    between atoms: _63  and  _64
REMARK   30  A    between atoms: _66  and  _68
REMARK   31  A    between atoms: _68  and  _69
REMARK   32  A    between atoms: _68  and  _71
REMARK   33  A    between atoms: _71  and  _72
REMARK   34  A    between atoms: _75  and  _77
REMARK   35  A    between atoms: _77  and  _78
REMARK   36  A    between atoms: _77  and  _80
REMARK   37  A    between atoms: _80  and  _81
REMARK   38  A    between atoms: _86  and  _88
REMARK   39  A    between atoms: _88  and  _89
REMARK   40  A    between atoms: _88  and  _91
REMARK   41  A    between atoms: _91  and  _92
REMARK   42  A    between atoms: _95  and  _97
REMARK   43  A    between atoms: _97  and  _98
REMARK   44  A    between atoms: _97  and  _100
REMARK   45  A    between atoms: _100  and  _101
REMARK   46  A    between atoms: _104  and  _106
REMARK   47  A    between atoms: _106  and  _107
REMARK   48  A    between atoms: _106  and  _109
REMARK   49  A    between atoms: _109  and  _110
REMARK   50  A    between atoms: _110  and  _111
REMARK   51  A    between atoms: _111  and  _112
REMARK   52  A    between atoms: _121  and  _123
REMARK   53  A    between atoms: _123  and  _124
REMARK   54  A    between atoms: _123  and  _126
REMARK   55  A    between atoms: _126  and  _127
REMARK   56  A    between atoms: _130  and  _132
REMARK   57  A    between atoms: _132  and  _133
REMARK   58  A    between atoms: _132  and  _135
REMARK   59  A    between atoms: _135  and  _136
REMARK   60  A    between atoms: _139  and  _141
REMARK   61  A    between atoms: _141  and  _142
REMARK   62  A    between atoms: _141  and  _144
REMARK   63  A    between atoms: _144  and  _145
REMARK   64  A    between atoms: _145  and  _146
REMARK   65  A    between atoms: _146  and  _147
REMARK   66  A    between atoms: _156  and  _158
REMARK   67  A    between atoms: _158  and  _159
REMARK   68  A    between atoms: _158  and  _161
REMARK   69  A    between atoms: _161  and  _162
REMARK   70  A    between atoms: _165  and  _167
REMARK   71  A    between atoms: _167  and  _168
REMARK   72  A    between atoms: _167  and  _170
REMARK   73  A    between atoms: _170  and  _171
REMARK   74  A    between atoms: _171  and  _172
REMARK   75  A    between atoms: _177  and  _179
REMARK   76  A    between atoms: _179  and  _180
REMARK   77  A    between atoms: _179  and  _182
REMARK   78  A    between atoms: _182  and  _183
REMARK   79  A    between atoms: _186  and  _188
REMARK   80  A    between atoms: _188  and  _189
REMARK   81  A    between atoms: _188  and  _191
REMARK   82  A    between atoms: _191  and  _192
REMARK   83  A    between atoms: _195  and  _197
REMARK   84  A    between atoms: _197  and  _198
REMARK   85  A    between atoms: _197  and  _200
REMARK   86  A    between atoms: _203  and  _205
REMARK   87  A    between atoms: _205  and  _206
REMARK   88  A    between atoms: _205  and  _208
REMARK   89  A    between atoms: _208  and  _209
REMARK   90  A    between atoms: _209  and  _210
REMARK   91  A    between atoms: _210  and  _211
REMARK   92  A    between atoms: _220  and  _222
REMARK   93  A    between atoms: _222  and  _223
REMARK   94  A    between atoms: _222  and  _225
REMARK   95  A    between atoms: _225  and  _226
REMARK   96  A    between atoms: _229  and  _231
REMARK   97  A    between atoms: _231  and  _232
REMARK   98  A    between atoms: _231  and  _234
REMARK   99  A    between atoms: _234  and  _235
REMARK  100  A    between atoms: _237  and  _239
REMARK  101  A    between atoms: _239  and  _240
REMARK  102  A    between atoms: _239  and  _242
REMARK  103  A    between atoms: _245  and  _247
REMARK  104  A    between atoms: _247  and  _248
REMARK  105  A    between atoms: _247  and  _250
REMARK  106  A    between atoms: _252  and  _254
REMARK  107  A    between atoms: _254  and  _255
REMARK  108  A    between atoms: _254  and  _257
REMARK  109  A    between atoms: _257  and  _258
REMARK  110  A    between atoms: _263  and  _265
REMARK  111  A    between atoms: _265  and  _266
REMARK  112  A    between atoms: _269  and  _271
REMARK  113  A    between atoms: _271  and  _272
REMARK  114  A    between atoms: _274  and  _276
REMARK  115  A    between atoms: _276  and  _277
REMARK  116  A    between atoms: _276  and  _279
REMARK  117  A    between atoms: _279  and  _280
REMARK  118  A    between atoms: _283  and  _285
REMARK  119  A    between atoms: _285  and  _286
REMARK  120  A    between atoms: _288  and  _290
REMARK  121  A    between atoms: _290  and  _291
REMARK  122  A    between atoms: _290  and  _293
REMARK  123  A    between atoms: _293  and  _294
REMARK  124  A    between atoms: _297  and  _299
REMARK  125  A    between atoms: _299  and  _300
REMARK  126  A    between atoms: _299  and  _302
REMARK  127  A    between atoms: _302  and  _303
REMARK  128  A    between atoms: _306  and  _308
REMARK  129  A    between atoms: _308  and  _309
REMARK  130  A    between atoms: _308  and  _311
REMARK  131  A    between atoms: _311  and  _312
REMARK  132  A    between atoms: _314  and  _316
REMARK  133  A    between atoms: _316  and  _317
REMARK  134  A    between atoms: _316  and  _319
REMARK  135  A    between atoms: _319  and  _320
REMARK  136  A    between atoms: _323  and  _325
REMARK  137  A    between atoms: _325  and  _326
REMARK  138  A    between atoms: _325  and  _328
REMARK  139  A    between atoms: _331  and  _333
REMARK  140  A    between atoms: _333  and  _334
REMARK  141  A    between atoms: _333  and  _336
REMARK  142  A    between atoms: _336  and  _337
REMARK  143  A    between atoms: _342  and  _344
REMARK  144  A    between atoms: _344  and  _345
REMARK  145  A    between atoms: _347  and  _349
REMARK  146  A    between atoms: _349  and  _350
REMARK  147  A    between atoms: _349  and  _352
REMARK  148  A    between atoms: _352  and  _353
REMARK  149  A    between atoms: _353  and  _354
REMARK  150  A    between atoms: _354  and  _355
REMARK  151  A    between atoms: _364  and  _366
REMARK  152  A    between atoms: _366  and  _367
REMARK  153  A    between atoms: _366  and  _369
REMARK  154  A    between atoms: _369  and  _370
REMARK  155  A    between atoms: _370  and  _371
REMARK  156  A    between atoms: _373  and  _375
REMARK  157  A    between atoms: _375  and  _376
REMARK  158  A    between atoms: _375  and  _378
REMARK  159  A    between atoms: _378  and  _379
REMARK  160  A    between atoms: _382  and  _384
REMARK  161  A    between atoms: _384  and  _385
REMARK  162  A    between atoms: _387  and  _389
REMARK  163  A    between atoms: _389  and  _390
REMARK  164  A    between atoms: _389  and  _392
REMARK  165  A    between atoms: _392  and  _393
REMARK  166  A    between atoms: _395  and  _397
REMARK  167  A    between atoms: _397  and  _398
REMARK  168  A    between atoms: _397  and  _400
REMARK  169  A    between atoms: _403  and  _405
REMARK  170  A    between atoms: _405  and  _406
REMARK  171  A    between atoms: _408  and  _410
REMARK  172  A    between atoms: _410  and  _411
REMARK  173  A    between atoms: _413  and  _415
REMARK  174  A    between atoms: _415  and  _416
REMARK  175  A    between atoms: _415  and  _418
REMARK  176  A    between atoms: _418  and  _419
REMARK  177  A    between atoms: _422  and  _424
REMARK  178  A    between atoms: _424  and  _425
REMARK  179  A    between atoms: _424  and  _427
REMARK  180  A    between atoms: _427  and  _428
REMARK  181  A    between atoms: _428  and  _429
REMARK  182  A    between atoms: _431  and  _433
REMARK  183  A    between atoms: _433  and  _434
REMARK  184  A    between atoms: _436  and  _438
REMARK  185  A    between atoms: _438  and  _439
REMARK  186  A    between atoms: _438  and  _441
REMARK  187  A    between atoms: _441  and  _442
REMARK  188  A    between atoms: _446  and  _447
REMARK  189  A    between atoms: _452  and  _454
REMARK  190  A    between atoms: _454  and  _455
REMARK  191  A    between atoms: _454  and  _457
REMARK  192  A    between atoms: _457  and  _458
REMARK  193  A    between atoms: _463  and  _465
REMARK  194  A    between atoms: _465  and  _466
REMARK  195  A    between atoms: _465  and  _468
REMARK  196  A    between atoms: _468  and  _469
REMARK  197  A    between atoms: _474  and  _475
REMARK  198  A    between atoms: _477  and  _479
REMARK  199  A    between atoms: _479  and  _480
REMARK  200  A    between atoms: _479  and  _482
REMARK  201  A    between atoms: _484  and  _486
REMARK  202  A    between atoms: _486  and  _487
REMARK  203  A    between atoms: _486  and  _489
REMARK  204  A    between atoms: _489  and  _490
REMARK  205  A    between atoms: _490  and  _491
REMARK  206  A    between atoms: _491  and  _492
REMARK  207  A    between atoms: _492  and  _493
REMARK  208  A    between atoms: _497  and  _499
REMARK  209  A    between atoms: _499  and  _500
REMARK  210  A    between atoms: _499  and  _502
REMARK  211  A    between atoms: _502  and  _503
REMARK  212  A    between atoms: _503  and  _504
REMARK  213  A    between atoms: _507  and  _509
REMARK  214  A    between atoms: _509  and  _510
REMARK  215  A    between atoms: _509  and  _512
REMARK  216  A    between atoms: _514  and  _516
REMARK  217  A    between atoms: _516  and  _517
REMARK  218  A    between atoms: _520  and  _521
REMARK  219  A    between atoms: _526  and  _528
REMARK  220  A    between atoms: _528  and  _529
REMARK  221  A    between atoms: _528  and  _531
REMARK  222  A    between atoms: _534  and  _536
REMARK  223  A    between atoms: _536  and  _537
REMARK  224  A    between atoms: _536  and  _539
REMARK  225  A    between atoms: _539  and  _540
REMARK  226  A    between atoms: _543  and  _545
REMARK  227  A    between atoms: _545  and  _546
REMARK  228  A    between atoms: _545  and  _548
REMARK  229  A    between atoms: _548  and  _549
REMARK  230  A    between atoms: _555  and  _557
REMARK  231  A    between atoms: _557  and  _558
REMARK  232  A    between atoms: _557  and  _560
REMARK  233  A    between atoms: _560  and  _561
REMARK  234  A    between atoms: _561  and  _562
REMARK  235  A    between atoms: _564  and  _566
REMARK  236  A    between atoms: _566  and  _567
REMARK  237  A    between atoms: _566  and  _569
REMARK  238  A    between atoms: _569  and  _570
REMARK  239  A    between atoms: _570  and  _571
REMARK  240  A    between atoms: _574  and  _576
REMARK  241  A    between atoms: _576  and  _577
REMARK  242  A    between atoms: _576  and  _579
REMARK  243  A    between atoms: _579  and  _580
REMARK  244  A    between atoms: _580  and  _581
REMARK  245  A    between atoms: _581  and  _582
REMARK  246  A    between atoms: _582  and  _583
REMARK  247  A    between atoms: _587  and  _589
REMARK  248  A    between atoms: _589  and  _590
REMARK  249  A    between atoms: _589  and  _592
REMARK  250  A    between atoms: _592  and  _593
REMARK  251  A    between atoms: _598  and  _599
REMARK  252  A    between atoms: _601  and  _603
REMARK  253  A    between atoms: _603  and  _604
REMARK  254  A    between atoms: _603  and  _606
REMARK  255  A    between atoms: _606  and  _607
REMARK  256  A    between atoms: _610  and  _612
REMARK  257  A    between atoms: _612  and  _613
REMARK  258  A    between atoms: _612  and  _615
REMARK  259  A    between atoms: _615  and  _616
REMARK  260  A    between atoms: _621  and  _623
REMARK  261  A    between atoms: _623  and  _624
REMARK  262  A    between atoms: _623  and  _626
REMARK  263  A    between atoms: _626  and  _627
REMARK  264  A    between atoms: _629  and  _631
REMARK  265  A    between atoms: _631  and  _632
REMARK  266  A    between atoms: _631  and  _634
REMARK  267  A    between atoms: _634  and  _635
REMARK  268  A    between atoms: _635  and  _636
REMARK  269  A    between atoms: _636  and  _637
REMARK  270  A    between atoms: _637  and  _638
REMARK  271  A    between atoms: _642  and  _644
REMARK  272  A    between atoms: _644  and  _645
REMARK  273  A    between atoms: _644  and  _647
REMARK  274  A    between atoms: _647  and  _648
REMARK  275  A    between atoms: _648  and  _649
REMARK  276  A    between atoms: _654  and  _656
REMARK  277  A    between atoms: _656  and  _657
REMARK  278  A    between atoms: _656  and  _659
REMARK  279  A    between atoms: _662  and  _664
REMARK  280  A    between atoms: _664  and  _665
REMARK  281  A    between atoms: _664  and  _667
REMARK  282  A    between atoms: _667  and  _668
REMARK  283  A    between atoms: _674  and  _676
REMARK  284  A    between atoms: _676  and  _677
REMARK  285  A    between atoms: _680  and  _682
REMARK  286  A    between atoms: _682  and  _683
REMARK  287  A    between atoms: _682  and  _685
REMARK  288  A    between atoms: _685  and  _686
REMARK  289  A    between atoms: _689  and  _691
REMARK  290  A    between atoms: _691  and  _692
REMARK  291  A    between atoms: _691  and  _694
REMARK  292  A    between atoms: _694  and  _695
REMARK  293  A    between atoms: _695  and  _696
REMARK  294  A    between atoms: _696  and  _697
REMARK  295  A    between atoms: _706  and  _708
REMARK  296  A    between atoms: _708  and  _709
REMARK  297  A    between atoms: _708  and  _711
REMARK  298  A    between atoms: _711  and  _712
REMARK  299  A    between atoms: _718  and  _720
REMARK  300  A    between atoms: _720  and  _721
REMARK  301  A    between atoms: _720  and  _723
REMARK  302  A    between atoms: _723  and  _724
REMARK  303  A    between atoms: _727  and  _729
REMARK  304  A    between atoms: _729  and  _730
REMARK  305  A    between atoms: _729  and  _732
REMARK  306  A    between atoms: _732  and  _733
REMARK  307  A    between atoms: _738  and  _739
REMARK  308  A    between atoms: _741  and  _743
REMARK  309  A    between atoms: _743  and  _744
REMARK  310  A    between atoms: _747  and  _749
REMARK  311  A    between atoms: _749  and  _750
REMARK  312  A    between atoms: _749  and  _752
REMARK  313  A    between atoms: _752  and  _753
REMARK  314  A    between atoms: _753  and  _754
REMARK  315  A    between atoms: _756  and  _758
REMARK  316  A    between atoms: _758  and  _759
REMARK  317  A    between atoms: _758  and  _761
REMARK  318  A    between atoms: _761  and  _762
REMARK  319  A    between atoms: _767  and  _769
REMARK  320  A    between atoms: _769  and  _770
REMARK  321  A    between atoms: _769  and  _772
REMARK  322  A    between atoms: _772  and  _773
REMARK  323  A    between atoms: _773  and  _774
REMARK  324  A    between atoms: _774  and  _775
REMARK  325  A    between atoms: _784  and  _786
REMARK  326  A    between atoms: _786  and  _787
REMARK  327  A    between atoms: _786  and  _789
REMARK  328  A    between atoms: _789  and  _790
REMARK  329  A    between atoms: _790  and  _791
REMARK  330  A    between atoms: _794  and  _796
REMARK  331  A    between atoms: _796  and  _797
REMARK  332  A    between atoms: _796  and  _799
REMARK  333  A    between atoms: _802  and  _804
REMARK  334  A    between atoms: _804  and  _805
REMARK  335  A    between atoms: _804  and  _807
REMARK  336  A    between atoms: _807  and  _808
REMARK                            x       y       z     vdW  Elec       q    Type
REMARK                         _______ _______ _______ _____ _____    ______ ____
ROOT
ATOM      1  O   HOH     1      10.018 -10.973  -7.241  0.00  0.00    +0.000 OA
ENDROOT
TORSDOF 0
REMARK  Name = ../refined-set-2016/1i5r/1i5r_pocket.pdb
REMARK  336 active torsions:
REMARK  status: ('A' for Active; 'I' for Inactive)
REMARK    1  A    between atoms: _1  and  _3
REMARK    2  A    between atoms: _3  and  _4
REMARK    3  A    between atoms: _3  and  _6
REMARK    4  A    between atoms: _6  and  _7
REMARK    5  A    between atoms: _10  and  _12
REMARK    6  A    between atoms: _12  and  _13
REMARK    7  A    between atoms: _12  and  _15
REMARK    8  A    between atoms: _15  and  _16
REMARK    9  A    between atoms: _19  and  _21
REMARK   10  A    between atoms: _21  and  _22
REMARK   11  A    between atoms: _24  and  _26
REMARK   12  A    between atoms: _26  and  _27
REMARK   13  A    between atoms: _26  and  _29
REMARK   14  A    between atoms: _31  and  _33
REMARK   15  A    between atoms: _33  and  _34
REMARK   16  A    between atoms: _33  and  _36
REMARK   17  A    between atoms: _36  and  _37
REMARK   18  A    between atoms: _39  and  _41
REMARK   19  A    between atoms: _41  and  _42
REMARK   20  A    between atoms: _41  and  _44
REMARK   21  A    between atoms: _44  and  _45
REMARK   22  A    between atoms: _47  and  _49
REMARK   23  A    between atoms: _49  and  _50
REMARK   24  A    between atoms: _52  and  _54
REMARK   25  A    between atoms: _54  and  _55
REMARK   26  A    between atoms: _54  and  _57
REMARK   27  A    between atoms: _57  and  _58
REMARK   28  A    between atoms: _61  and  _63
REMARK   29  A    between atoms: _63  and  _64
REMARK   30  A    between atoms: _66  and  _68
REMARK   31  A    between atoms: _68  and  _69
REMARK   32  A    between atoms: _68  and  _71
REMARK   33  A    between atoms: _71  and  _72
REMARK   34  A    between atoms: _75  and  _77
REMARK   35  A    between atoms: _77  and  _78
REMARK   36  A    between atoms: _77  and  _80
REMARK   37  A    between atoms: _80  and  _81
REMARK   38  A    between atoms: _86  and  _88
REMARK   39  A    between atoms: _88  and  _89
REMARK   40  A    between atoms: _88  and  _91
REMARK   41  A    between atoms: _91  and  _92
REMARK   42  A    between atoms: _95  and  _97
REMARK   43  A    between atoms: _97  and  _98
REMARK   44  A    between atoms: _97  and  _100
REMARK   45  A    between atoms: _100  and  _101
REMARK   46  A    between atoms: _104  and  _106
REMARK   47  A    between atoms: _106  and  _107
REMARK   48  A    between atoms: _106  and  _109
REMARK   49  A    between atoms: _109  and  _110
REMARK   50  A    between atoms: _110  and  _111
REMARK   51  A    between atoms: _111  and  _112
REMARK   52  A    between atoms: _121  and  _123
REMARK   53  A    between atoms: _123  and  _124
REMARK   54  A    between atoms: _123  and  _126
REMARK   55  A    between atoms: _126  and  _127
REMARK   56  A    between atoms: _130  and  _132
REMARK   57  A    between atoms: _132  and  _133
REMARK   58  A    between atoms: _132  and  _135
REMARK   59  A    between atoms: _135  and  _136
REMARK   60  A    between atoms: _139  and  _141
REMARK   61  A    between atoms: _141  and  _142
REMARK   62  A    between atoms: _141  and  _144
REMARK   63  A    between atoms: _144  and  _145
REMARK   64  A    between atoms: _145  and  _146
REMARK   65  A    between atoms: _146  and  _147
REMARK   66  A    between atoms: _156  and  _158
REMARK   67  A    between atoms: _158  and  _159
REMARK   68  A    between atoms: _158  and  _161
REMARK   69  A    between atoms: _161  and  _162
REMARK   70  A    between atoms: _165  and  _167
REMARK   71  A    between atoms: _167  and  _168
REMARK   72  A    between atoms: _167  and  _170
REMARK   73  A    between atoms: _170  and  _171
REMARK   74  A    between atoms: _171  and  _172
REMARK   75  A    between atoms: _177  and  _179
REMARK   76  A    between atoms: _179  and  _180
REMARK   77  A    between atoms: _179  and  _182
REMARK   78  A    between atoms: _182  and  _183
REMARK   79  A    between atoms: _186  and  _188
REMARK   80  A    between atoms: _188  and  _189
REMARK   81  A    between atoms: _188  and  _191
REMARK   82  A    between atoms: _191  and  _192
REMARK   83  A    between atoms: _195  and  _197
REMARK   84  A    between atoms: _197  and  _198
REMARK   85  A    between atoms: _197  and  _200
REMARK   86  A    between atoms: _203  and  _205
REMARK   87  A    between atoms: _205  and  _206
REMARK   88  A    between atoms: _205  and  _208
REMARK   89  A    between atoms: _208  and  _209
REMARK   90  A    between atoms: _209  and  _210
REMARK   91  A    between atoms: _210  and  _211
REMARK   92  A    between atoms: _220  and  _222
REMARK   93  A    between atoms: _222  and  _223
REMARK   94  A    between atoms: _222  and  _225
REMARK   95  A    between atoms: _225  and  _226
REMARK   96  A    between atoms: _229  and  _231
REMARK   97  A    between atoms: _231  and  _232
REMARK   98  A    between atoms: _231  and  _234
REMARK   99  A    between atoms: _234  and  _235
REMARK  100  A    between atoms: _237  and  _239
REMARK  101  A    between atoms: _239  and  _240
REMARK  102  A    between atoms: _239  and  _242
REMARK  103  A    between atoms: _245  and  _247
REMARK  104  A    between atoms: _247  and  _248
REMARK  105  A    between atoms: _247  and  _250
REMARK  106  A    between atoms: _252  and  _254
REMARK  107  A    between atoms: _254  and  _255
REMARK  108  A    between atoms: _254  and  _257
REMARK  109  A    between atoms: _257  and  _258
REMARK  110  A    between atoms: _263  and  _265
REMARK  111  A    between atoms: _265  and  _266
REMARK  112  A    between atoms: _269  and  _271
REMARK  113  A    between atoms: _271  and  _272
REMARK  114  A    between atoms: _274  and  _276
REMARK  115  A    between atoms: _276  and  _277
REMARK  116  A    between atoms: _276  and  _279
REMARK  117  A    between atoms: _279  and  _280
REMARK  118  A    between atoms: _283  and  _285
REMARK  119  A    between atoms: _285  and  _286
REMARK  120  A    between atoms: _288  and  _290
REMARK  121  A    between atoms: _290  and  _291
REMARK  122  A    between atoms: _290  and  _293
REMARK  123  A    between atoms: _293  and  _294
REMARK  124  A    between atoms: _297  and  _299
REMARK  125  A    between atoms: _299  and  _300
REMARK  126  A    between atoms: _299  and  _302
REMARK  127  A    between atoms: _302  and  _303
REMARK  128  A    between atoms: _306  and  _308
REMARK  129  A    between atoms: _308  and  _309
REMARK  130  A    between atoms: _308  and  _311
REMARK  131  A    between atoms: _311  and  _312
REMARK  132  A    between atoms: _314  and  _316
REMARK  133  A    between atoms: _316  and  _317
REMARK  134  A    between atoms: _316  and  _319
REMARK  135  A    between atoms: _319  and  _320
REMARK  136  A    between atoms: _323  and  _325
REMARK  137  A    between atoms: _325  and  _326
REMARK  138  A    between atoms: _325  and  _328
REMARK  139  A    between atoms: _331  and  _333
REMARK  140  A    between atoms: _333  and  _334
REMARK  141  A    between atoms: _333  and  _336
REMARK  142  A    between atoms: _336  and  _337
REMARK  143  A    between atoms: _342  and  _344
REMARK  144  A    between atoms: _344  and  _345
REMARK  145  A    between atoms: _347  and  _349
REMARK  146  A    between atoms: _349  and  _350
REMARK  147  A    between atoms: _349  and  _352
REMARK  148  A    between atoms: _352  and  _353
REMARK  149  A    between atoms: _353  and  _354
REMARK  150  A    between atoms: _354  and  _355
REMARK  151  A    between atoms: _364  and  _366
REMARK  152  A    between atoms: _366  and  _367
REMARK  153  A    between atoms: _366  and  _369
REMARK  154  A    between atoms: _369  and  _370
REMARK  155  A    between atoms: _370  and  _371
REMARK  156  A    between atoms: _373  and  _375
REMARK  157  A    between atoms: _375  and  _376
REMARK  158  A    between atoms: _375  and  _378
REMARK  159  A    between atoms: _378  and  _379
REMARK  160  A    between atoms: _382  and  _384
REMARK  161  A    between atoms: _384  and  _385
REMARK  162  A    between atoms: _387  and  _389
REMARK  163  A    between atoms: _389  and  _390
REMARK  164  A    between atoms: _389  and  _392
REMARK  165  A    between atoms: _392  and  _393
REMARK  166  A    between atoms: _395  and  _397
REMARK  167  A    between atoms: _397  and  _398
REMARK  168  A    between atoms: _397  and  _400
REMARK  169  A    between atoms: _403  and  _405
REMARK  170  A    between atoms: _405  and  _406
REMARK  171  A    between atoms: _408  and  _410
REMARK  172  A    between atoms: _410  and  _411
REMARK  173  A    between atoms: _413  and  _415
REMARK  174  A    between atoms: _415  and  _416
REMARK  175  A    between atoms: _415  and  _418
REMARK  176  A    between atoms: _418  and  _419
REMARK  177  A    between atoms: _422  and  _424
REMARK  178  A    between atoms: _424  and  _425
REMARK  179  A    between atoms: _424  and  _427
REMARK  180  A    between atoms: _427  and  _428
REMARK  181  A    between atoms: _428  and  _429
REMARK  182  A    between atoms: _431  and  _433
REMARK  183  A    between atoms: _433  and  _434
REMARK  184  A    between atoms: _436  and  _438
REMARK  185  A    between atoms: _438  and  _439
REMARK  186  A    between atoms: _438  and  _441
REMARK  187  A    between atoms: _441  and  _442
REMARK  188  A    between atoms: _446  and  _447
REMARK  189  A    between atoms: _452  and  _454
REMARK  190  A    between atoms: _454  and  _455
REMARK  191  A    between atoms: _454  and  _457
REMARK  192  A    between atoms: _457  and  _458
REMARK  193  A    between atoms: _463  and  _465
REMARK  194  A    between atoms: _465  and  _466
REMARK  195  A    between atoms: _465  and  _468
REMARK  196  A    between atoms: _468  and  _469
REMARK  197  A    between atoms: _474  and  _475
REMARK  198  A    between atoms: _477  and  _479
REMARK  199  A    between atoms: _479  and  _480
REMARK  200  A    between atoms: _479  and  _482
REMARK  201  A    between atoms: _484  and  _486
REMARK  202  A    between atoms: _486  and  _487
REMARK  203  A    between atoms: _486  and  _489
REMARK  204  A    between atoms: _489  and  _490
REMARK  205  A    between atoms: _490  and  _491
REMARK  206  A    between atoms: _491  and  _492
REMARK  207  A    between atoms: _492  and  _493
REMARK  208  A    between atoms: _497  and  _499
REMARK  209  A    between atoms: _499  and  _500
REMARK  210  A    between atoms: _499  and  _502
REMARK  211  A    between atoms: _502  and  _503
REMARK  212  A    between atoms: _503  and  _504
REMARK  213  A    between atoms: _507  and  _509
REMARK  214  A    between atoms: _509  and  _510
REMARK  215  A    between atoms: _509  and  _512
REMARK  216  A    between atoms: _514  and  _516
REMARK  217  A    between atoms: _516  and  _517
REMARK  218  A    between atoms: _520  and  _521
REMARK  219  A    between atoms: _526  and  _528
REMARK  220  A    between atoms: _528  and  _529
REMARK  221  A    between atoms: _528  and  _531
REMARK  222  A    between atoms: _534  and  _536
REMARK  223  A    between atoms: _536  and  _537
REMARK  224  A    between atoms: _536  and  _539
REMARK  225  A    between atoms: _539  and  _540
REMARK  226  A    between atoms: _543  and  _545
REMARK  227  A    between atoms: _545  and  _546
REMARK  228  A    between atoms: _545  and  _548
REMARK  229  A    between atoms: _548  and  _549
REMARK  230  A    between atoms: _555  and  _557
REMARK  231  A    between atoms: _557  and  _558
REMARK  232  A    between atoms: _557  and  _560
REMARK  233  A    between atoms: _560  and  _561
REMARK  234  A    between atoms: _561  and  _562
REMARK  235  A    between atoms: _564  and  _566
REMARK  236  A    between atoms: _566  and  _567
REMARK  237  A    between atoms: _566  and  _569
REMARK  238  A    between atoms: _569  and  _570
REMARK  239  A    between atoms: _570  and  _571
REMARK  240  A    between atoms: _574  and  _576
REMARK  241  A    between atoms: _576  and  _577
REMARK  242  A    between atoms: _576  and  _579
REMARK  243  A    between atoms: _579  and  _580
REMARK  244  A    between atoms: _580  and  _581
REMARK  245  A    between atoms: _581  and  _582
REMARK  246  A    between atoms: _582  and  _583
REMARK  247  A    between atoms: _587  and  _589
REMARK  248  A    between atoms: _589  and  _590
REMARK  249  A    between atoms: _589  and  _592
REMARK  250  A    between atoms: _592  and  _593
REMARK  251  A    between atoms: _598  and  _599
REMARK  252  A    between atoms: _601  and  _603
REMARK  253  A    between atoms: _603  and  _604
REMARK  254  A    between atoms: _603  and  _606
REMARK  255  A    between atoms: _606  and  _607
REMARK  256  A    between atoms: _610  and  _612
REMARK  257  A    between atoms: _612  and  _613
REMARK  258  A    between atoms: _612  and  _615
REMARK  259  A    between atoms: _615  and  _616
REMARK  260  A    between atoms: _621  and  _623
REMARK  261  A    between atoms: _623  and  _624
REMARK  262  A    between atoms: _623  and  _626
REMARK  263  A    between atoms: _626  and  _627
REMARK  264  A    between atoms: _629  and  _631
REMARK  265  A    between atoms: _631  and  _632
REMARK  266  A    between atoms: _631  and  _634
REMARK  267  A    between atoms: _634  and  _635
REMARK  268  A    between atoms: _635  and  _636
REMARK  269  A    between atoms: _636  and  _637
REMARK  270  A    between atoms: _637  and  _638
REMARK  271  A    between atoms: _642  and  _644
REMARK  272  A    between atoms: _644  and  _645
REMARK  273  A    between atoms: _644  and  _647
REMARK  274  A    between atoms: _647  and  _648
REMARK  275  A    between atoms: _648  and  _649
REMARK  276  A    between atoms: _654  and  _656
REMARK  277  A    between atoms: _656  and  _657
REMARK  278  A    between atoms: _656  and  _659
REMARK  279  A    between atoms: _662  and  _664
REMARK  280  A    between atoms: _664  and  _665
REMARK  281  A    between atoms: _664  and  _667
REMARK  282  A    between atoms: _667  and  _668
REMARK  283  A    between atoms: _674  and  _676
REMARK  284  A    between atoms: _676  and  _677
REMARK  285  A    between atoms: _680  and  _682
REMARK  286  A    between atoms: _682  and  _683
REMARK  287  A    between atoms: _682  and  _685
REMARK  288  A    between atoms: _685  and  _686
REMARK  289  A    between atoms: _689  and  _691
REMARK  290  A    between atoms: _691  and  _692
REMARK  291  A    between atoms: _691  and  _694
REMARK  292  A    between atoms: _694  and  _695
REMARK  293  A    between atoms: _695  and  _696
REMARK  294  A    between atoms: _696  and  _697
REMARK  295  A    between atoms: _706  and  _708
REMARK  296  A    between atoms: _708  and  _709
REMARK  297  A    between atoms: _708  and  _711
REMARK  298  A    between atoms: _711  and  _712
REMARK  299  A    between atoms: _718  and  _720
REMARK  300  A    between atoms: _720  and  _721
REMARK  301  A    between atoms: _720  and  _723
REMARK  302  A    between atoms: _723  and  _724
REMARK  303  A    between atoms: _727  and  _729
REMARK  304  A    between atoms: _729  and  _730
REMARK  305  A    between atoms: _729  and  _732
REMARK  306  A    between atoms: _732  and  _733
REMARK  307  A    between atoms: _738  and  _739
REMARK  308  A    between atoms: _741  and  _743
REMARK  309  A    between atoms: _743  and  _744
REMARK  310  A    between atoms: _747  and  _749
REMARK  311  A    between atoms: _749  and  _750
REMARK  312  A    between atoms: _749  and  _752
REMARK  313  A    between atoms: _752  and  _753
REMARK  314  A    between atoms: _753  and  _754
REMARK  315  A    between atoms: _756  and  _758
REMARK  316  A    between atoms: _758  and  _759
REMARK  317  A    between atoms: _758  and  _761
REMARK  318  A    between atoms: _761  and  _762
REMARK  319  A    between atoms: _767  and  _769
REMARK  320  A    between atoms: _769  and  _770
REMARK  321  A    between atoms: _769  and  _772
REMARK  322  A    between atoms: _772  and  _773
REMARK  323  A    between atoms: _773  and  _774
REMARK  324  A    between atoms: _774  and  _775
REMARK  325  A    between atoms: _784  and  _786
REMARK  326  A    between atoms: _786  and  _787
REMARK  327  A    between atoms: _786  and  _789
REMARK  328  A    between atoms: _789  and  _790
REMARK  329  A    between atoms: _790  and  _791
REMARK  330  A    between atoms: _794  and  _796
REMARK  331  A    between atoms: _796  and  _797
REMARK  332  A    between atoms: _796  and  _799
REMARK  333  A    between atoms: _802  and  _804
REMARK  334  A    between atoms: _804  and  _805
REMARK  335  A    between atoms: _804  and  _807
REMARK  336  A    between atoms: _807  and  _808
REMARK                            x       y       z     vdW  Elec       q    Type
REMARK                         _______ _______ _______ _____ _____    ______ ____
ROOT
ATOM      1  O   HOH     1      14.261   4.495 -16.563  0.00  0.00    +0.000 OA
ENDROOT
TORSDOF 0
REMARK  Name = ../refined-set-2016/1i5r/1i5r_pocket.pdb
REMARK  336 active torsions:
REMARK  status: ('A' for Active; 'I' for Inactive)
REMARK    1  A    between atoms: _1  and  _3
REMARK    2  A    between atoms: _3  and  _4
REMARK    3  A    between atoms: _3  and  _6
REMARK    4  A    between atoms: _6  and  _7
REMARK    5  A    between atoms: _10  and  _12
REMARK    6  A    between atoms: _12  and  _13
REMARK    7  A    between atoms: _12  and  _15
REMARK    8  A    between atoms: _15  and  _16
REMARK    9  A    between atoms: _19  and  _21
REMARK   10  A    between atoms: _21  and  _22
REMARK   11  A    between atoms: _24  and  _26
REMARK   12  A    between atoms: _26  and  _27
REMARK   13  A    between atoms: _26  and  _29
REMARK   14  A    between atoms: _31  and  _33
REMARK   15  A    between atoms: _33  and  _34
REMARK   16  A    between atoms: _33  and  _36
REMARK   17  A    between atoms: _36  and  _37
REMARK   18  A    between atoms: _39  and  _41
REMARK   19  A    between atoms: _41  and  _42
REMARK   20  A    between atoms: _41  and  _44
REMARK   21  A    between atoms: _44  and  _45
REMARK   22  A    between atoms: _47  and  _49
REMARK   23  A    between atoms: _49  and  _50
REMARK   24  A    between atoms: _52  and  _54
REMARK   25  A    between atoms: _54  and  _55
REMARK   26  A    between atoms: _54  and  _57
REMARK   27  A    between atoms: _57  and  _58
REMARK   28  A    between atoms: _61  and  _63
REMARK   29  A    between atoms: _63  and  _64
REMARK   30  A    between atoms: _66  and  _68
REMARK   31  A    between atoms: _68  and  _69
REMARK   32  A    between atoms: _68  and  _71
REMARK   33  A    between atoms: _71  and  _72
REMARK   34  A    between atoms: _75  and  _77
REMARK   35  A    between atoms: _77  and  _78
REMARK   36  A    between atoms: _77  and  _80
REMARK   37  A    between atoms: _80  and  _81
REMARK   38  A    between atoms: _86  and  _88
REMARK   39  A    between atoms: _88  and  _89
REMARK   40  A    between atoms: _88  and  _91
REMARK   41  A    between atoms: _91  and  _92
REMARK   42  A    between atoms: _95  and  _97
REMARK   43  A    between atoms: _97  and  _98
REMARK   44  A    between atoms: _97  and  _100
REMARK   45  A    between atoms: _100  and  _101
REMARK   46  A    between atoms: _104  and  _106
REMARK   47  A    between atoms: _106  and  _107
REMARK   48  A    between atoms: _106  and  _109
REMARK   49  A    between atoms: _109  and  _110
REMARK   50  A    between atoms: _110  and  _111
REMARK   51  A    between atoms: _111  and  _112
REMARK   52  A    between atoms: _121  and  _123
REMARK   53  A    between atoms: _123  and  _124
REMARK   54  A    between atoms: _123  and  _126
REMARK   55  A    between atoms: _126  and  _127
REMARK   56  A    between atoms: _130  and  _132
REMARK   57  A    between atoms: _132  and  _133
REMARK   58  A    between atoms: _132  and  _135
REMARK   59  A    between atoms: _135  and  _136
REMARK   60  A    between atoms: _139  and  _141
REMARK   61  A    between atoms: _141  and  _142
REMARK   62  A    between atoms: _141  and  _144
REMARK   63  A    between atoms: _144  and  _145
REMARK   64  A    between atoms: _145  and  _146
REMARK   65  A    between atoms: _146  and  _147
REMARK   66  A    between atoms: _156  and  _158
REMARK   67  A    between atoms: _158  and  _159
REMARK   68  A    between atoms: _158  and  _161
REMARK   69  A    between atoms: _161  and  _162
REMARK   70  A    between atoms: _165  and  _167
REMARK   71  A    between atoms: _167  and  _168
REMARK   72  A    between atoms: _167  and  _170
REMARK   73  A    between atoms: _170  and  _171
REMARK   74  A    between atoms: _171  and  _172
REMARK   75  A    between atoms: _177  and  _179
REMARK   76  A    between atoms: _179  and  _180
REMARK   77  A    between atoms: _179  and  _182
REMARK   78  A    between atoms: _182  and  _183
REMARK   79  A    between atoms: _186  and  _188
REMARK   80  A    between atoms: _188  and  _189
REMARK   81  A    between atoms: _188  and  _191
REMARK   82  A    between atoms: _191  and  _192
REMARK   83  A    between atoms: _195  and  _197
REMARK   84  A    between atoms: _197  and  _198
REMARK   85  A    between atoms: _197  and  _200
REMARK   86  A    between atoms: _203  and  _205
REMARK   87  A    between atoms: _205  and  _206
REMARK   88  A    between atoms: _205  and  _208
REMARK   89  A    between atoms: _208  and  _209
REMARK   90  A    between atoms: _209  and  _210
REMARK   91  A    between atoms: _210  and  _211
REMARK   92  A    between atoms: _220  and  _222
REMARK   93  A    between atoms: _222  and  _223
REMARK   94  A    between atoms: _222  and  _225
REMARK   95  A    between atoms: _225  and  _226
REMARK   96  A    between atoms: _229  and  _231
REMARK   97  A    between atoms: _231  and  _232
REMARK   98  A    between atoms: _231  and  _234
REMARK   99  A    between atoms: _234  and  _235
REMARK  100  A    between atoms: _237  and  _239
REMARK  101  A    between atoms: _239  and  _240
REMARK  102  A    between atoms: _239  and  _242
REMARK  103  A    between atoms: _245  and  _247
REMARK  104  A    between atoms: _247  and  _248
REMARK  105  A    between atoms: _247  and  _250
REMARK  106  A    between atoms: _252  and  _254
REMARK  107  A    between atoms: _254  and  _255
REMARK  108  A    between atoms: _254  and  _257
REMARK  109  A    between atoms: _257  and  _258
REMARK  110  A    between atoms: _263  and  _265
REMARK  111  A    between atoms: _265  and  _266
REMARK  112  A    between atoms: _269  and  _271
REMARK  113  A    between atoms: _271  and  _272
REMARK  114  A    between atoms: _274  and  _276
REMARK  115  A    between atoms: _276  and  _277
REMARK  116  A    between atoms: _276  and  _279
REMARK  117  A    between atoms: _279  and  _280
REMARK  118  A    between atoms: _283  and  _285
REMARK  119  A    between atoms: _285  and  _286
REMARK  120  A    between atoms: _288  and  _290
REMARK  121  A    between atoms: _290  and  _291
REMARK  122  A    between atoms: _290  and  _293
REMARK  123  A    between atoms: _293  and  _294
REMARK  124  A    between atoms: _297  and  _299
REMARK  125  A    between atoms: _299  and  _300
REMARK  126  A    between atoms: _299  and  _302
REMARK  127  A    between atoms: _302  and  _303
REMARK  128  A    between atoms: _306  and  _308
REMARK  129  A    between atoms: _308  and  _309
REMARK  130  A    between atoms: _308  and  _311
REMARK  131  A    between atoms: _311  and  _312
REMARK  132  A    between atoms: _314  and  _316
REMARK  133  A    between atoms: _316  and  _317
REMARK  134  A    between atoms: _316  and  _319
REMARK  135  A    between atoms: _319  and  _320
REMARK  136  A    between atoms: _323  and  _325
REMARK  137  A    between atoms: _325  and  _326
REMARK  138  A    between atoms: _325  and  _328
REMARK  139  A    between atoms: _331  and  _333
REMARK  140  A    between atoms: _333  and  _334
REMARK  141  A    between atoms: _333  and  _336
REMARK  142  A    between atoms: _336  and  _337
REMARK  143  A    between atoms: _342  and  _344
REMARK  144  A    between atoms: _344  and  _345
REMARK  145  A    between atoms: _347  and  _349
REMARK  146  A    between atoms: _349  and  _350
REMARK  147  A    between atoms: _349  and  _352
REMARK  148  A    between atoms: _352  and  _353
REMARK  149  A    between atoms: _353  and  _354
REMARK  150  A    between atoms: _354  and  _355
REMARK  151  A    between atoms: _364  and  _366
REMARK  152  A    between atoms: _366  and  _367
REMARK  153  A    between atoms: _366  and  _369
REMARK  154  A    between atoms: _369  and  _370
REMARK  155  A    between atoms: _370  and  _371
REMARK  156  A    between atoms: _373  and  _375
REMARK  157  A    between atoms: _375  and  _376
REMARK  158  A    between atoms: _375  and  _378
REMARK  159  A    between atoms: _378  and  _379
REMARK  160  A    between atoms: _382  and  _384
REMARK  161  A    between atoms: _384  and  _385
REMARK  162  A    between atoms: _387  and  _389
REMARK  163  A    between atoms: _389  and  _390
REMARK  164  A    between atoms: _389  and  _392
REMARK  165  A    between atoms: _392  and  _393
REMARK  166  A    between atoms: _395  and  _397
REMARK  167  A    between atoms: _397  and  _398
REMARK  168  A    between atoms: _397  and  _400
REMARK  169  A    between atoms: _403  and  _405
REMARK  170  A    between atoms: _405  and  _406
REMARK  171  A    between atoms: _408  and  _410
REMARK  172  A    between atoms: _410  and  _411
REMARK  173  A    between atoms: _413  and  _415
REMARK  174  A    between atoms: _415  and  _416
REMARK  175  A    between atoms: _415  and  _418
REMARK  176  A    between atoms: _418  and  _419
REMARK  177  A    between atoms: _422  and  _424
REMARK  178  A    between atoms: _424  and  _425
REMARK  179  A    between atoms: _424  and  _427
REMARK  180  A    between atoms: _427  and  _428
REMARK  181  A    between atoms: _428  and  _429
REMARK  182  A    between atoms: _431  and  _433
REMARK  183  A    between atoms: _433  and  _434
REMARK  184  A    between atoms: _436  and  _438
REMARK  185  A    between atoms: _438  and  _439
REMARK  186  A    between atoms: _438  and  _441
REMARK  187  A    between atoms: _441  and  _442
REMARK  188  A    between atoms: _446  and  _447
REMARK  189  A    between atoms: _452  and  _454
REMARK  190  A    between atoms: _454  and  _455
REMARK  191  A    between atoms: _454  and  _457
REMARK  192  A    between atoms: _457  and  _458
REMARK  193  A    between atoms: _463  and  _465
REMARK  194  A    between atoms: _465  and  _466
REMARK  195  A    between atoms: _465  and  _468
REMARK  196  A    between atoms: _468  and  _469
REMARK  197  A    between atoms: _474  and  _475
REMARK  198  A    between atoms: _477  and  _479
REMARK  199  A    between atoms: _479  and  _480
REMARK  200  A    between atoms: _479  and  _482
REMARK  201  A    between atoms: _484  and  _486
REMARK  202  A    between atoms: _486  and  _487
REMARK  203  A    between atoms: _486  and  _489
REMARK  204  A    between atoms: _489  and  _490
REMARK  205  A    between atoms: _490  and  _491
REMARK  206  A    between atoms: _491  and  _492
REMARK  207  A    between atoms: _492  and  _493
REMARK  208  A    between atoms: _497  and  _499
REMARK  209  A    between atoms: _499  and  _500
REMARK  210  A    between atoms: _499  and  _502
REMARK  211  A    between atoms: _502  and  _503
REMARK  212  A    between atoms: _503  and  _504
REMARK  213  A    between atoms: _507  and  _509
REMARK  214  A    between atoms: _509  and  _510
REMARK  215  A    between atoms: _509  and  _512
REMARK  216  A    between atoms: _514  and  _516
REMARK  217  A    between atoms: _516  and  _517
REMARK  218  A    between atoms: _520  and  _521
REMARK  219  A    between atoms: _526  and  _528
REMARK  220  A    between atoms: _528  and  _529
REMARK  221  A    between atoms: _528  and  _531
REMARK  222  A    between atoms: _534  and  _536
REMARK  223  A    between atoms: _536  and  _537
REMARK  224  A    between atoms: _536  and  _539
REMARK  225  A    between atoms: _539  and  _540
REMARK  226  A    between atoms: _543  and  _545
REMARK  227  A    between atoms: _545  and  _546
REMARK  228  A    between atoms: _545  and  _548
REMARK  229  A    between atoms: _548  and  _549
REMARK  230  A    between atoms: _555  and  _557
REMARK  231  A    between atoms: _557  and  _558
REMARK  232  A    between atoms: _557  and  _560
REMARK  233  A    between atoms: _560  and  _561
REMARK  234  A    between atoms: _561  and  _562
REMARK  235  A    between atoms: _564  and  _566
REMARK  236  A    between atoms: _566  and  _567
REMARK  237  A    between atoms: _566  and  _569
REMARK  238  A    between atoms: _569  and  _570
REMARK  239  A    between atoms: _570  and  _571
REMARK  240  A    between atoms: _574  and  _576
REMARK  241  A    between atoms: _576  and  _577
REMARK  242  A    between atoms: _576  and  _579
REMARK  243  A    between atoms: _579  and  _580
REMARK  244  A    between atoms: _580  and  _581
REMARK  245  A    between atoms: _581  and  _582
REMARK  246  A    between atoms: _582  and  _583
REMARK  247  A    between atoms: _587  and  _589
REMARK  248  A    between atoms: _589  and  _590
REMARK  249  A    between atoms: _589  and  _592
REMARK  250  A    between atoms: _592  and  _593
REMARK  251  A    between atoms: _598  and  _599
REMARK  252  A    between atoms: _601  and  _603
REMARK  253  A    between atoms: _603  and  _604
REMARK  254  A    between atoms: _603  and  _606
REMARK  255  A    between atoms: _606  and  _607
REMARK  256  A    between atoms: _610  and  _612
REMARK  257  A    between atoms: _612  and  _613
REMARK  258  A    between atoms: _612  and  _615
REMARK  259  A    between atoms: _615  and  _616
REMARK  260  A    between atoms: _621  and  _623
REMARK  261  A    between atoms: _623  and  _624
REMARK  262  A    between atoms: _623  and  _626
REMARK  263  A    between atoms: _626  and  _627
REMARK  264  A    between atoms: _629  and  _631
REMARK  265  A    between atoms: _631  and  _632
REMARK  266  A    between atoms: _631  and  _634
REMARK  267  A    between atoms: _634  and  _635
REMARK  268  A    between atoms: _635  and  _636
REMARK  269  A    between atoms: _636  and  _637
REMARK  270  A    between atoms: _637  and  _638
REMARK  271  A    between atoms: _642  and  _644
REMARK  272  A    between atoms: _644  and  _645
REMARK  273  A    between atoms: _644  and  _647
REMARK  274  A    between atoms: _647  and  _648
REMARK  275  A    between atoms: _648  and  _649
REMARK  276  A    between atoms: _654  and  _656
REMARK  277  A    between atoms: _656  and  _657
REMARK  278  A    between atoms: _656  and  _659
REMARK  279  A    between atoms: _662  and  _664
REMARK  280  A    between atoms: _664  and  _665
REMARK  281  A    between atoms: _664  and  _667
REMARK  282  A    between atoms: _667  and  _668
REMARK  283  A    between atoms: _674  and  _676
REMARK  284  A    between atoms: _676  and  _677
REMARK  285  A    between atoms: _680  and  _682
REMARK  286  A    between atoms: _682  and  _683
REMARK  287  A    between atoms: _682  and  _685
REMARK  288  A    between atoms: _685  and  _686
REMARK  289  A    between atoms: _689  and  _691
REMARK  290  A    between atoms: _691  and  _692
REMARK  291  A    between atoms: _691  and  _694
REMARK  292  A    between atoms: _694  and  _695
REMARK  293  A    between atoms: _695  and  _696
REMARK  294  A    between atoms: _696  and  _697
REMARK  295  A    between atoms: _706  and  _708
REMARK  296  A    between atoms: _708  and  _709
REMARK  297  A    between atoms: _708  and  _711
REMARK  298  A    between atoms: _711  and  _712
REMARK  299  A    between atoms: _718  and  _720
REMARK  300  A    between atoms: _720  and  _721
REMARK  301  A    between atoms: _720  and  _723
REMARK  302  A    between atoms: _723  and  _724
REMARK  303  A    between atoms: _727  and  _729
REMARK  304  A    between atoms: _729  and  _730
REMARK  305  A    between atoms: _729  and  _732
REMARK  306  A    between atoms: _732  and  _733
REMARK  307  A    between atoms: _738  and  _739
REMARK  308  A    between atoms: _741  and  _743
REMARK  309  A    between atoms: _743  and  _744
REMARK  310  A    between atoms: _747  and  _749
REMARK  311  A    between atoms: _749  and  _750
REMARK  312  A    between atoms: _749  and  _752
REMARK  313  A    between atoms: _752  and  _753
REMARK  314  A    between atoms: _753  and  _754
REMARK  315  A    between atoms: _756  and  _758
REMARK  316  A    between atoms: _758  and  _759
REMARK  317  A    between atoms: _758  and  _761
REMARK  318  A    between atoms: _761  and  _762
REMARK  319  A    between atoms: _767  and  _769
REMARK  320  A    between atoms: _769  and  _770
REMARK  321  A    between atoms: _769  and  _772
REMARK  322  A    between atoms: _772  and  _773
REMARK  323  A    between atoms: _773  and  _774
REMARK  324  A    between atoms: _774  and  _775
REMARK  325  A    between atoms: _784  and  _786
REMARK  326  A    between atoms: _786  and  _787
REMARK  327  A    between atoms: _786  and  _789
REMARK  328  A    between atoms: _789  and  _790
REMARK  329  A    between atoms: _790  and  _791
REMARK  330  A    between atoms: _794  and  _796
REMARK  331  A    between atoms: _796  and  _797
REMARK  332  A    between atoms: _796  and  _799
REMARK  333  A    between atoms: _802  and  _804
REMARK  334  A    between atoms: _804  and  _805
REMARK  335  A    between atoms: _804  and  _807
REMARK  336  A    between atoms: _807  and  _808
REMARK                            x       y       z     vdW  Elec       q    Type
REMARK                         _______ _______ _______ _____ _____    ______ ____
ROOT
ATOM      1  O   HOH     1      12.582  -9.814  -7.537  0.00  0.00    +0.000 OA
ENDROOT
TORSDOF 0
REMARK  Name = ../refined-set-2016/1i5r/1i5r_pocket.pdb
REMARK  336 active torsions:
REMARK  status: ('A' for Active; 'I' for Inactive)
REMARK    1  A    between atoms: _1  and  _3
REMARK    2  A    between atoms: _3  and  _4
REMARK    3  A    between atoms: _3  and  _6
REMARK    4  A    between atoms: _6  and  _7
REMARK    5  A    between atoms: _10  and  _12
REMARK    6  A    between atoms: _12  and  _13
REMARK    7  A    between atoms: _12  and  _15
REMARK    8  A    between atoms: _15  and  _16
REMARK    9  A    between atoms: _19  and  _21
REMARK   10  A    between atoms: _21  and  _22
REMARK   11  A    between atoms: _24  and  _26
REMARK   12  A    between atoms: _26  and  _27
REMARK   13  A    between atoms: _26  and  _29
REMARK   14  A    between atoms: _31  and  _33
REMARK   15  A    between atoms: _33  and  _34
REMARK   16  A    between atoms: _33  and  _36
REMARK   17  A    between atoms: _36  and  _37
REMARK   18  A    between atoms: _39  and  _41
REMARK   19  A    between atoms: _41  and  _42
REMARK   20  A    between atoms: _41  and  _44
REMARK   21  A    between atoms: _44  and  _45
REMARK   22  A    between atoms: _47  and  _49
REMARK   23  A    between atoms: _49  and  _50
REMARK   24  A    between atoms: _52  and  _54
REMARK   25  A    between atoms: _54  and  _55
REMARK   26  A    between atoms: _54  and  _57
REMARK   27  A    between atoms: _57  and  _58
REMARK   28  A    between atoms: _61  and  _63
REMARK   29  A    between atoms: _63  and  _64
REMARK   30  A    between atoms: _66  and  _68
REMARK   31  A    between atoms: _68  and  _69
REMARK   32  A    between atoms: _68  and  _71
REMARK   33  A    between atoms: _71  and  _72
REMARK   34  A    between atoms: _75  and  _77
REMARK   35  A    between atoms: _77  and  _78
REMARK   36  A    between atoms: _77  and  _80
REMARK   37  A    between atoms: _80  and  _81
REMARK   38  A    between atoms: _86  and  _88
REMARK   39  A    between atoms: _88  and  _89
REMARK   40  A    between atoms: _88  and  _91
REMARK   41  A    between atoms: _91  and  _92
REMARK   42  A    between atoms: _95  and  _97
REMARK   43  A    between atoms: _97  and  _98
REMARK   44  A    between atoms: _97  and  _100
REMARK   45  A    between atoms: _100  and  _101
REMARK   46  A    between atoms: _104  and  _106
REMARK   47  A    between atoms: _106  and  _107
REMARK   48  A    between atoms: _106  and  _109
REMARK   49  A    between atoms: _109  and  _110
REMARK   50  A    between atoms: _110  and  _111
REMARK   51  A    between atoms: _111  and  _112
REMARK   52  A    between atoms: _121  and  _123
REMARK   53  A    between atoms: _123  and  _124
REMARK   54  A    between atoms: _123  and  _126
REMARK   55  A    between atoms: _126  and  _127
REMARK   56  A    between atoms: _130  and  _132
REMARK   57  A    between atoms: _132  and  _133
REMARK   58  A    between atoms: _132  and  _135
REMARK   59  A    between atoms: _135  and  _136
REMARK   60  A    between atoms: _139  and  _141
REMARK   61  A    between atoms: _141  and  _142
REMARK   62  A    between atoms: _141  and  _144
REMARK   63  A    between atoms: _144  and  _145
REMARK   64  A    between atoms: _145  and  _146
REMARK   65  A    between atoms: _146  and  _147
REMARK   66  A    between atoms: _156  and  _158
REMARK   67  A    between atoms: _158  and  _159
REMARK   68  A    between atoms: _158  and  _161
REMARK   69  A    between atoms: _161  and  _162
REMARK   70  A    between atoms: _165  and  _167
REMARK   71  A    between atoms: _167  and  _168
REMARK   72  A    between atoms: _167  and  _170
REMARK   73  A    between atoms: _170  and  _171
REMARK   74  A    between atoms: _171  and  _172
REMARK   75  A    between atoms: _177  and  _179
REMARK   76  A    between atoms: _179  and  _180
REMARK   77  A    between atoms: _179  and  _182
REMARK   78  A    between atoms: _182  and  _183
REMARK   79  A    between atoms: _186  and  _188
REMARK   80  A    between atoms: _188  and  _189
REMARK   81  A    between atoms: _188  and  _191
REMARK   82  A    between atoms: _191  and  _192
REMARK   83  A    between atoms: _195  and  _197
REMARK   84  A    between atoms: _197  and  _198
REMARK   85  A    between atoms: _197  and  _200
REMARK   86  A    between atoms: _203  and  _205
REMARK   87  A    between atoms: _205  and  _206
REMARK   88  A    between atoms: _205  and  _208
REMARK   89  A    between atoms: _208  and  _209
REMARK   90  A    between atoms: _209  and  _210
REMARK   91  A    between atoms: _210  and  _211
REMARK   92  A    between atoms: _220  and  _222
REMARK   93  A    between atoms: _222  and  _223
REMARK   94  A    between atoms: _222  and  _225
REMARK   95  A    between atoms: _225  and  _226
REMARK   96  A    between atoms: _229  and  _231
REMARK   97  A    between atoms: _231  and  _232
REMARK   98  A    between atoms: _231  and  _234
REMARK   99  A    between atoms: _234  and  _235
REMARK  100  A    between atoms: _237  and  _239
REMARK  101  A    between atoms: _239  and  _240
REMARK  102  A    between atoms: _239  and  _242
REMARK  103  A    between atoms: _245  and  _247
REMARK  104  A    between atoms: _247  and  _248
REMARK  105  A    between atoms: _247  and  _250
REMARK  106  A    between atoms: _252  and  _254
REMARK  107  A    between atoms: _254  and  _255
REMARK  108  A    between atoms: _254  and  _257
REMARK  109  A    between atoms: _257  and  _258
REMARK  110  A    between atoms: _263  and  _265
REMARK  111  A    between atoms: _265  and  _266
REMARK  112  A    between atoms: _269  and  _271
REMARK  113  A    between atoms: _271  and  _272
REMARK  114  A    between atoms: _274  and  _276
REMARK  115  A    between atoms: _276  and  _277
REMARK  116  A    between atoms: _276  and  _279
REMARK  117  A    between atoms: _279  and  _280
REMARK  118  A    between atoms: _283  and  _285
REMARK  119  A    between atoms: _285  and  _286
REMARK  120  A    between atoms: _288  and  _290
REMARK  121  A    between atoms: _290  and  _291
REMARK  122  A    between atoms: _290  and  _293
REMARK  123  A    between atoms: _293  and  _294
REMARK  124  A    between atoms: _297  and  _299
REMARK  125  A    between atoms: _299  and  _300
REMARK  126  A    between atoms: _299  and  _302
REMARK  127  A    between atoms: _302  and  _303
REMARK  128  A    between atoms: _306  and  _308
REMARK  129  A    between atoms: _308  and  _309
REMARK  130  A    between atoms: _308  and  _311
REMARK  131  A    between atoms: _311  and  _312
REMARK  132  A    between atoms: _314  and  _316
REMARK  133  A    between atoms: _316  and  _317
REMARK  134  A    between atoms: _316  and  _319
REMARK  135  A    between atoms: _319  and  _320
REMARK  136  A    between atoms: _323  and  _325
REMARK  137  A    between atoms: _325  and  _326
REMARK  138  A    between atoms: _325  and  _328
REMARK  139  A    between atoms: _331  and  _333
REMARK  140  A    between atoms: _333  and  _334
REMARK  141  A    between atoms: _333  and  _336
REMARK  142  A    between atoms: _336  and  _337
REMARK  143  A    between atoms: _342  and  _344
REMARK  144  A    between atoms: _344  and  _345
REMARK  145  A    between atoms: _347  and  _349
REMARK  146  A    between atoms: _349  and  _350
REMARK  147  A    between atoms: _349  and  _352
REMARK  148  A    between atoms: _352  and  _353
REMARK  149  A    between atoms: _353  and  _354
REMARK  150  A    between atoms: _354  and  _355
REMARK  151  A    between atoms: _364  and  _366
REMARK  152  A    between atoms: _366  and  _367
REMARK  153  A    between atoms: _366  and  _369
REMARK  154  A    between atoms: _369  and  _370
REMARK  155  A    between atoms: _370  and  _371
REMARK  156  A    between atoms: _373  and  _375
REMARK  157  A    between atoms: _375  and  _376
REMARK  158  A    between atoms: _375  and  _378
REMARK  159  A    between atoms: _378  and  _379
REMARK  160  A    between atoms: _382  and  _384
REMARK  161  A    between atoms: _384  and  _385
REMARK  162  A    between atoms: _387  and  _389
REMARK  163  A    between atoms: _389  and  _390
REMARK  164  A    between atoms: _389  and  _392
REMARK  165  A    between atoms: _392  and  _393
REMARK  166  A    between atoms: _395  and  _397
REMARK  167  A    between atoms: _397  and  _398
REMARK  168  A    between atoms: _397  and  _400
REMARK  169  A    between atoms: _403  and  _405
REMARK  170  A    between atoms: _405  and  _406
REMARK  171  A    between atoms: _408  and  _410
REMARK  172  A    between atoms: _410  and  _411
REMARK  173  A    between atoms: _413  and  _415
REMARK  174  A    between atoms: _415  and  _416
REMARK  175  A    between atoms: _415  and  _418
REMARK  176  A    between atoms: _418  and  _419
REMARK  177  A    between atoms: _422  and  _424
REMARK  178  A    between atoms: _424  and  _425
REMARK  179  A    between atoms: _424  and  _427
REMARK  180  A    between atoms: _427  and  _428
REMARK  181  A    between atoms: _428  and  _429
REMARK  182  A    between atoms: _431  and  _433
REMARK  183  A    between atoms: _433  and  _434
REMARK  184  A    between atoms: _436  and  _438
REMARK  185  A    between atoms: _438  and  _439
REMARK  186  A    between atoms: _438  and  _441
REMARK  187  A    between atoms: _441  and  _442
REMARK  188  A    between atoms: _446  and  _447
REMARK  189  A    between atoms: _452  and  _454
REMARK  190  A    between atoms: _454  and  _455
REMARK  191  A    between atoms: _454  and  _457
REMARK  192  A    between atoms: _457  and  _458
REMARK  193  A    between atoms: _463  and  _465
REMARK  194  A    between atoms: _465  and  _466
REMARK  195  A    between atoms: _465  and  _468
REMARK  196  A    between atoms: _468  and  _469
REMARK  197  A    between atoms: _474  and  _475
REMARK  198  A    between atoms: _477  and  _479
REMARK  199  A    between atoms: _479  and  _480
REMARK  200  A    between atoms: _479  and  _482
REMARK  201  A    between atoms: _484  and  _486
REMARK  202  A    between atoms: _486  and  _487
REMARK  203  A    between atoms: _486  and  _489
REMARK  204  A    between atoms: _489  and  _490
REMARK  205  A    between atoms: _490  and  _491
REMARK  206  A    between atoms: _491  and  _492
REMARK  207  A    between atoms: _492  and  _493
REMARK  208  A    between atoms: _497  and  _499
REMARK  209  A    between atoms: _499  and  _500
REMARK  210  A    between atoms: _499  and  _502
REMARK  211  A    between atoms: _502  and  _503
REMARK  212  A    between atoms: _503  and  _504
REMARK  213  A    between atoms: _507  and  _509
REMARK  214  A    between atoms: _509  and  _510
REMARK  215  A    between atoms: _509  and  _512
REMARK  216  A    between atoms: _514  and  _516
REMARK  217  A    between atoms: _516  and  _517
REMARK  218  A    between atoms: _520  and  _521
REMARK  219  A    between atoms: _526  and  _528
REMARK  220  A    between atoms: _528  and  _529
REMARK  221  A    between atoms: _528  and  _531
REMARK  222  A    between atoms: _534  and  _536
REMARK  223  A    between atoms: _536  and  _537
REMARK  224  A    between atoms: _536  and  _539
REMARK  225  A    between atoms: _539  and  _540
REMARK  226  A    between atoms: _543  and  _545
REMARK  227  A    between atoms: _545  and  _546
REMARK  228  A    between atoms: _545  and  _548
REMARK  229  A    between atoms: _548  and  _549
REMARK  230  A    between atoms: _555  and  _557
REMARK  231  A    between atoms: _557  and  _558
REMARK  232  A    between atoms: _557  and  _560
REMARK  233  A    between atoms: _560  and  _561
REMARK  234  A    between atoms: _561  and  _562
REMARK  235  A    between atoms: _564  and  _566
REMARK  236  A    between atoms: _566  and  _567
REMARK  237  A    between atoms: _566  and  _569
REMARK  238  A    between atoms: _569  and  _570
REMARK  239  A    between atoms: _570  and  _571
REMARK  240  A    between atoms: _574  and  _576
REMARK  241  A    between atoms: _576  and  _577
REMARK  242  A    between atoms: _576  and  _579
REMARK  243  A    between atoms: _579  and  _580
REMARK  244  A    between atoms: _580  and  _581
REMARK  245  A    between atoms: _581  and  _582
REMARK  246  A    between atoms: _582  and  _583
REMARK  247  A    between atoms: _587  and  _589
REMARK  248  A    between atoms: _589  and  _590
REMARK  249  A    between atoms: _589  and  _592
REMARK  250  A    between atoms: _592  and  _593
REMARK  251  A    between atoms: _598  and  _599
REMARK  252  A    between atoms: _601  and  _603
REMARK  253  A    between atoms: _603  and  _604
REMARK  254  A    between atoms: _603  and  _606
REMARK  255  A    between atoms: _606  and  _607
REMARK  256  A    between atoms: _610  and  _612
REMARK  257  A    between atoms: _612  and  _613
REMARK  258  A    between atoms: _612  and  _615
REMARK  259  A    between atoms: _615  and  _616
REMARK  260  A    between atoms: _621  and  _623
REMARK  261  A    between atoms: _623  and  _624
REMARK  262  A    between atoms: _623  and  _626
REMARK  263  A    between atoms: _626  and  _627
REMARK  264  A    between atoms: _629  and  _631
REMARK  265  A    between atoms: _631  and  _632
REMARK  266  A    between atoms: _631  and  _634
REMARK  267  A    between atoms: _634  and  _635
REMARK  268  A    between atoms: _635  and  _636
REMARK  269  A    between atoms: _636  and  _637
REMARK  270  A    between atoms: _637  and  _638
REMARK  271  A    between atoms: _642  and  _644
REMARK  272  A    between atoms: _644  and  _645
REMARK  273  A    between atoms: _644  and  _647
REMARK  274  A    between atoms: _647  and  _648
REMARK  275  A    between atoms: _648  and  _649
REMARK  276  A    between atoms: _654  and  _656
REMARK  277  A    between atoms: _656  and  _657
REMARK  278  A    between atoms: _656  and  _659
REMARK  279  A    between atoms: _662  and  _664
REMARK  280  A    between atoms: _664  and  _665
REMARK  281  A    between atoms: _664  and  _667
REMARK  282  A    between atoms: _667  and  _668
REMARK  283  A    between atoms: _674  and  _676
REMARK  284  A    between atoms: _676  and  _677
REMARK  285  A    between atoms: _680  and  _682
REMARK  286  A    between atoms: _682  and  _683
REMARK  287  A    between atoms: _682  and  _685
REMARK  288  A    between atoms: _685  and  _686
REMARK  289  A    between atoms: _689  and  _691
REMARK  290  A    between atoms: _691  and  _692
REMARK  291  A    between atoms: _691  and  _694
REMARK  292  A    between atoms: _694  and  _695
REMARK  293  A    between atoms: _695  and  _696
REMARK  294  A    between atoms: _696  and  _697
REMARK  295  A    between atoms: _706  and  _708
REMARK  296  A    between atoms: _708  and  _709
REMARK  297  A    between atoms: _708  and  _711
REMARK  298  A    between atoms: _711  and  _712
REMARK  299  A    between atoms: _718  and  _720
REMARK  300  A    between atoms: _720  and  _721
REMARK  301  A    between atoms: _720  and  _723
REMARK  302  A    between atoms: _723  and  _724
REMARK  303  A    between atoms: _727  and  _729
REMARK  304  A    between atoms: _729  and  _730
REMARK  305  A    between atoms: _729  and  _732
REMARK  306  A    between atoms: _732  and  _733
REMARK  307  A    between atoms: _738  and  _739
REMARK  308  A    between atoms: _741  and  _743
REMARK  309  A    between atoms: _743  and  _744
REMARK  310  A    between atoms: _747  and  _749
REMARK  311  A    between atoms: _749  and  _750
REMARK  312  A    between atoms: _749  and  _752
REMARK  313  A    between atoms: _752  and  _753
REMARK  314  A    between atoms: _753  and  _754
REMARK  315  A    between atoms: _756  and  _758
REMARK  316  A    between atoms: _758  and  _759
REMARK  317  A    between atoms: _758  and  _761
REMARK  318  A    between atoms: _761  and  _762
REMARK  319  A    between atoms: _767  and  _769
REMARK  320  A    between atoms: _769  and  _770
REMARK  321  A    between atoms: _769  and  _772
REMARK  322  A    between atoms: _772  and  _773
REMARK  323  A    between atoms: _773  and  _774
REMARK  324  A    between atoms: _774  and  _775
REMARK  325  A    between atoms: _784  and  _786
REMARK  326  A    between atoms: _786  and  _787
REMARK  327  A    between atoms: _786  and  _789
REMARK  328  A    between atoms: _789  and  _790
REMARK  329  A    between atoms: _790  and  _791
REMARK  330  A    between atoms: _794  and  _796
REMARK  331  A    between atoms: _796  and  _797
REMARK  332  A    between atoms: _796  and  _799
REMARK  333  A    between atoms: _802  and  _804
REMARK  334  A    between atoms: _804  and  _805
REMARK  335  A    between atoms: _804  and  _807
REMARK  336  A    between atoms: _807  and  _808
REMARK                            x       y       z     vdW  Elec       q    Type
REMARK                         _______ _______ _______ _____ _____    ______ ____
ROOT
ATOM      1  O   HOH     1      12.634   2.171 -13.339  0.00  0.00    +0.000 OA
ENDROOT
TORSDOF 0
REMARK  Name = ../refined-set-2016/1i5r/1i5r_pocket.pdb
REMARK  336 active torsions:
REMARK  status: ('A' for Active; 'I' for Inactive)
REMARK    1  A    between atoms: _1  and  _3
REMARK    2  A    between atoms: _3  and  _4
REMARK    3  A    between atoms: _3  and  _6
REMARK    4  A    between atoms: _6  and  _7
REMARK    5  A    between atoms: _10  and  _12
REMARK    6  A    between atoms: _12  and  _13
REMARK    7  A    between atoms: _12  and  _15
REMARK    8  A    between atoms: _15  and  _16
REMARK    9  A    between atoms: _19  and  _21
REMARK   10  A    between atoms: _21  and  _22
REMARK   11  A    between atoms: _24  and  _26
REMARK   12  A    between atoms: _26  and  _27
REMARK   13  A    between atoms: _26  and  _29
REMARK   14  A    between atoms: _31  and  _33
REMARK   15  A    between atoms: _33  and  _34
REMARK   16  A    between atoms: _33  and  _36
REMARK   17  A    between atoms: _36  and  _37
REMARK   18  A    between atoms: _39  and  _41
REMARK   19  A    between atoms: _41  and  _42
REMARK   20  A    between atoms: _41  and  _44
REMARK   21  A    between atoms: _44  and  _45
REMARK   22  A    between atoms: _47  and  _49
REMARK   23  A    between atoms: _49  and  _50
REMARK   24  A    between atoms: _52  and  _54
REMARK   25  A    between atoms: _54  and  _55
REMARK   26  A    between atoms: _54  and  _57
REMARK   27  A    between atoms: _57  and  _58
REMARK   28  A    between atoms: _61  and  _63
REMARK   29  A    between atoms: _63  and  _64
REMARK   30  A    between atoms: _66  and  _68
REMARK   31  A    between atoms: _68  and  _69
REMARK   32  A    between atoms: _68  and  _71
REMARK   33  A    between atoms: _71  and  _72
REMARK   34  A    between atoms: _75  and  _77
REMARK   35  A    between atoms: _77  and  _78
REMARK   36  A    between atoms: _77  and  _80
REMARK   37  A    between atoms: _80  and  _81
REMARK   38  A    between atoms: _86  and  _88
REMARK   39  A    between atoms: _88  and  _89
REMARK   40  A    between atoms: _88  and  _91
REMARK   41  A    between atoms: _91  and  _92
REMARK   42  A    between atoms: _95  and  _97
REMARK   43  A    between atoms: _97  and  _98
REMARK   44  A    between atoms: _97  and  _100
REMARK   45  A    between atoms: _100  and  _101
REMARK   46  A    between atoms: _104  and  _106
REMARK   47  A    between atoms: _106  and  _107
REMARK   48  A    between atoms: _106  and  _109
REMARK   49  A    between atoms: _109  and  _110
REMARK   50  A    between atoms: _110  and  _111
REMARK   51  A    between atoms: _111  and  _112
REMARK   52  A    between atoms: _121  and  _123
REMARK   53  A    between atoms: _123  and  _124
REMARK   54  A    between atoms: _123  and  _126
REMARK   55  A    between atoms: _126  and  _127
REMARK   56  A    between atoms: _130  and  _132
REMARK   57  A    between atoms: _132  and  _133
REMARK   58  A    between atoms: _132  and  _135
REMARK   59  A    between atoms: _135  and  _136
REMARK   60  A    between atoms: _139  and  _141
REMARK   61  A    between atoms: _141  and  _142
REMARK   62  A    between atoms: _141  and  _144
REMARK   63  A    between atoms: _144  and  _145
REMARK   64  A    between atoms: _145  and  _146
REMARK   65  A    between atoms: _146  and  _147
REMARK   66  A    between atoms: _156  and  _158
REMARK   67  A    between atoms: _158  and  _159
REMARK   68  A    between atoms: _158  and  _161
REMARK   69  A    between atoms: _161  and  _162
REMARK   70  A    between atoms: _165  and  _167
REMARK   71  A    between atoms: _167  and  _168
REMARK   72  A    between atoms: _167  and  _170
REMARK   73  A    between atoms: _170  and  _171
REMARK   74  A    between atoms: _171  and  _172
REMARK   75  A    between atoms: _177  and  _179
REMARK   76  A    between atoms: _179  and  _180
REMARK   77  A    between atoms: _179  and  _182
REMARK   78  A    between atoms: _182  and  _183
REMARK   79  A    between atoms: _186  and  _188
REMARK   80  A    between atoms: _188  and  _189
REMARK   81  A    between atoms: _188  and  _191
REMARK   82  A    between atoms: _191  and  _192
REMARK   83  A    between atoms: _195  and  _197
REMARK   84  A    between atoms: _197  and  _198
REMARK   85  A    between atoms: _197  and  _200
REMARK   86  A    between atoms: _203  and  _205
REMARK   87  A    between atoms: _205  and  _206
REMARK   88  A    between atoms: _205  and  _208
REMARK   89  A    between atoms: _208  and  _209
REMARK   90  A    between atoms: _209  and  _210
REMARK   91  A    between atoms: _210  and  _211
REMARK   92  A    between atoms: _220  and  _222
REMARK   93  A    between atoms: _222  and  _223
REMARK   94  A    between atoms: _222  and  _225
REMARK   95  A    between atoms: _225  and  _226
REMARK   96  A    between atoms: _229  and  _231
REMARK   97  A    between atoms: _231  and  _232
REMARK   98  A    between atoms: _231  and  _234
REMARK   99  A    between atoms: _234  and  _235
REMARK  100  A    between atoms: _237  and  _239
REMARK  101  A    between atoms: _239  and  _240
REMARK  102  A    between atoms: _239  and  _242
REMARK  103  A    between atoms: _245  and  _247
REMARK  104  A    between atoms: _247  and  _248
REMARK  105  A    between atoms: _247  and  _250
REMARK  106  A    between atoms: _252  and  _254
REMARK  107  A    between atoms: _254  and  _255
REMARK  108  A    between atoms: _254  and  _257
REMARK  109  A    between atoms: _257  and  _258
REMARK  110  A    between atoms: _263  and  _265
REMARK  111  A    between atoms: _265  and  _266
REMARK  112  A    between atoms: _269  and  _271
REMARK  113  A    between atoms: _271  and  _272
REMARK  114  A    between atoms: _274  and  _276
REMARK  115  A    between atoms: _276  and  _277
REMARK  116  A    between atoms: _276  and  _279
REMARK  117  A    between atoms: _279  and  _280
REMARK  118  A    between atoms: _283  and  _285
REMARK  119  A    between atoms: _285  and  _286
REMARK  120  A    between atoms: _288  and  _290
REMARK  121  A    between atoms: _290  and  _291
REMARK  122  A    between atoms: _290  and  _293
REMARK  123  A    between atoms: _293  and  _294
REMARK  124  A    between atoms: _297  and  _299
REMARK  125  A    between atoms: _299  and  _300
REMARK  126  A    between atoms: _299  and  _302
REMARK  127  A    between atoms: _302  and  _303
REMARK  128  A    between atoms: _306  and  _308
REMARK  129  A    between atoms: _308  and  _309
REMARK  130  A    between atoms: _308  and  _311
REMARK  131  A    between atoms: _311  and  _312
REMARK  132  A    between atoms: _314  and  _316
REMARK  133  A    between atoms: _316  and  _317
REMARK  134  A    between atoms: _316  and  _319
REMARK  135  A    between atoms: _319  and  _320
REMARK  136  A    between atoms: _323  and  _325
REMARK  137  A    between atoms: _325  and  _326
REMARK  138  A    between atoms: _325  and  _328
REMARK  139  A    between atoms: _331  and  _333
REMARK  140  A    between atoms: _333  and  _334
REMARK  141  A    between atoms: _333  and  _336
REMARK  142  A    between atoms: _336  and  _337
REMARK  143  A    between atoms: _342  and  _344
REMARK  144  A    between atoms: _344  and  _345
REMARK  145  A    between atoms: _347  and  _349
REMARK  146  A    between atoms: _349  and  _350
REMARK  147  A    between atoms: _349  and  _352
REMARK  148  A    between atoms: _352  and  _353
REMARK  149  A    between atoms: _353  and  _354
REMARK  150  A    between atoms: _354  and  _355
REMARK  151  A    between atoms: _364  and  _366
REMARK  152  A    between atoms: _366  and  _367
REMARK  153  A    between atoms: _366  and  _369
REMARK  154  A    between atoms: _369  and  _370
REMARK  155  A    between atoms: _370  and  _371
REMARK  156  A    between atoms: _373  and  _375
REMARK  157  A    between atoms: _375  and  _376
REMARK  158  A    between atoms: _375  and  _378
REMARK  159  A    between atoms: _378  and  _379
REMARK  160  A    between atoms: _382  and  _384
REMARK  161  A    between atoms: _384  and  _385
REMARK  162  A    between atoms: _387  and  _389
REMARK  163  A    between atoms: _389  and  _390
REMARK  164  A    between atoms: _389  and  _392
REMARK  165  A    between atoms: _392  and  _393
REMARK  166  A    between atoms: _395  and  _397
REMARK  167  A    between atoms: _397  and  _398
REMARK  168  A    between atoms: _397  and  _400
REMARK  169  A    between atoms: _403  and  _405
REMARK  170  A    between atoms: _405  and  _406
REMARK  171  A    between atoms: _408  and  _410
REMARK  172  A    between atoms: _410  and  _411
REMARK  173  A    between atoms: _413  and  _415
REMARK  174  A    between atoms: _415  and  _416
REMARK  175  A    between atoms: _415  and  _418
REMARK  176  A    between atoms: _418  and  _419
REMARK  177  A    between atoms: _422  and  _424
REMARK  178  A    between atoms: _424  and  _425
REMARK  179  A    between atoms: _424  and  _427
REMARK  180  A    between atoms: _427  and  _428
REMARK  181  A    between atoms: _428  and  _429
REMARK  182  A    between atoms: _431  and  _433
REMARK  183  A    between atoms: _433  and  _434
REMARK  184  A    between atoms: _436  and  _438
REMARK  185  A    between atoms: _438  and  _439
REMARK  186  A    between atoms: _438  and  _441
REMARK  187  A    between atoms: _441  and  _442
REMARK  188  A    between atoms: _446  and  _447
REMARK  189  A    between atoms: _452  and  _454
REMARK  190  A    between atoms: _454  and  _455
REMARK  191  A    between atoms: _454  and  _457
REMARK  192  A    between atoms: _457  and  _458
REMARK  193  A    between atoms: _463  and  _465
REMARK  194  A    between atoms: _465  and  _466
REMARK  195  A    between atoms: _465  and  _468
REMARK  196  A    between atoms: _468  and  _469
REMARK  197  A    between atoms: _474  and  _475
REMARK  198  A    between atoms: _477  and  _479
REMARK  199  A    between atoms: _479  and  _480
REMARK  200  A    between atoms: _479  and  _482
REMARK  201  A    between atoms: _484  and  _486
REMARK  202  A    between atoms: _486  and  _487
REMARK  203  A    between atoms: _486  and  _489
REMARK  204  A    between atoms: _489  and  _490
REMARK  205  A    between atoms: _490  and  _491
REMARK  206  A    between atoms: _491  and  _492
REMARK  207  A    between atoms: _492  and  _493
REMARK  208  A    between atoms: _497  and  _499
REMARK  209  A    between atoms: _499  and  _500
REMARK  210  A    between atoms: _499  and  _502
REMARK  211  A    between atoms: _502  and  _503
REMARK  212  A    between atoms: _503  and  _504
REMARK  213  A    between atoms: _507  and  _509
REMARK  214  A    between atoms: _509  and  _510
REMARK  215  A    between atoms: _509  and  _512
REMARK  216  A    between atoms: _514  and  _516
REMARK  217  A    between atoms: _516  and  _517
REMARK  218  A    between atoms: _520  and  _521
REMARK  219  A    between atoms: _526  and  _528
REMARK  220  A    between atoms: _528  and  _529
REMARK  221  A    between atoms: _528  and  _531
REMARK  222  A    between atoms: _534  and  _536
REMARK  223  A    between atoms: _536  and  _537
REMARK  224  A    between atoms: _536  and  _539
REMARK  225  A    between atoms: _539  and  _540
REMARK  226  A    between atoms: _543  and  _545
REMARK  227  A    between atoms: _545  and  _546
REMARK  228  A    between atoms: _545  and  _548
REMARK  229  A    between atoms: _548  and  _549
REMARK  230  A    between atoms: _555  and  _557
REMARK  231  A    between atoms: _557  and  _558
REMARK  232  A    between atoms: _557  and  _560
REMARK  233  A    between atoms: _560  and  _561
REMARK  234  A    between atoms: _561  and  _562
REMARK  235  A    between atoms: _564  and  _566
REMARK  236  A    between atoms: _566  and  _567
REMARK  237  A    between atoms: _566  and  _569
REMARK  238  A    between atoms: _569  and  _570
REMARK  239  A    between atoms: _570  and  _571
REMARK  240  A    between atoms: _574  and  _576
REMARK  241  A    between atoms: _576  and  _577
REMARK  242  A    between atoms: _576  and  _579
REMARK  243  A    between atoms: _579  and  _580
REMARK  244  A    between atoms: _580  and  _581
REMARK  245  A    between atoms: _581  and  _582
REMARK  246  A    between atoms: _582  and  _583
REMARK  247  A    between atoms: _587  and  _589
REMARK  248  A    between atoms: _589  and  _590
REMARK  249  A    between atoms: _589  and  _592
REMARK  250  A    between atoms: _592  and  _593
REMARK  251  A    between atoms: _598  and  _599
REMARK  252  A    between atoms: _601  and  _603
REMARK  253  A    between atoms: _603  and  _604
REMARK  254  A    between atoms: _603  and  _606
REMARK  255  A    between atoms: _606  and  _607
REMARK  256  A    between atoms: _610  and  _612
REMARK  257  A    between atoms: _612  and  _613
REMARK  258  A    between atoms: _612  and  _615
REMARK  259  A    between atoms: _615  and  _616
REMARK  260  A    between atoms: _621  and  _623
REMARK  261  A    between atoms: _623  and  _624
REMARK  262  A    between atoms: _623  and  _626
REMARK  263  A    between atoms: _626  and  _627
REMARK  264  A    between atoms: _629  and  _631
REMARK  265  A    between atoms: _631  and  _632
REMARK  266  A    between atoms: _631  and  _634
REMARK  267  A    between atoms: _634  and  _635
REMARK  268  A    between atoms: _635  and  _636
REMARK  269  A    between atoms: _636  and  _637
REMARK  270  A    between atoms: _637  and  _638
REMARK  271  A    between atoms: _642  and  _644
REMARK  272  A    between atoms: _644  and  _645
REMARK  273  A    between atoms: _644  and  _647
REMARK  274  A    between atoms: _647  and  _648
REMARK  275  A    between atoms: _648  and  _649
REMARK  276  A    between atoms: _654  and  _656
REMARK  277  A    between atoms: _656  and  _657
REMARK  278  A    between atoms: _656  and  _659
REMARK  279  A    between atoms: _662  and  _664
REMARK  280  A    between atoms: _664  and  _665
REMARK  281  A    between atoms: _664  and  _667
REMARK  282  A    between atoms: _667  and  _668
REMARK  283  A    between atoms: _674  and  _676
REMARK  284  A    between atoms: _676  and  _677
REMARK  285  A    between atoms: _680  and  _682
REMARK  286  A    between atoms: _682  and  _683
REMARK  287  A    between atoms: _682  and  _685
REMARK  288  A    between atoms: _685  and  _686
REMARK  289  A    between atoms: _689  and  _691
REMARK  290  A    between atoms: _691  and  _692
REMARK  291  A    between atoms: _691  and  _694
REMARK  292  A    between atoms: _694  and  _695
REMARK  293  A    between atoms: _695  and  _696
REMARK  294  A    between atoms: _696  and  _697
REMARK  295  A    between atoms: _706  and  _708
REMARK  296  A    between atoms: _708  and  _709
REMARK  297  A    between atoms: _708  and  _711
REMARK  298  A    between atoms: _711  and  _712
REMARK  299  A    between atoms: _718  and  _720
REMARK  300  A    between atoms: _720  and  _721
REMARK  301  A    between atoms: _720  and  _723
REMARK  302  A    between atoms: _723  and  _724
REMARK  303  A    between atoms: _727  and  _729
REMARK  304  A    between atoms: _729  and  _730
REMARK  305  A    between atoms: _729  and  _732
REMARK  306  A    between atoms: _732  and  _733
REMARK  307  A    between atoms: _738  and  _739
REMARK  308  A    between atoms: _741  and  _743
REMARK  309  A    between atoms: _743  and  _744
REMARK  310  A    between atoms: _747  and  _749
REMARK  311  A    between atoms: _749  and  _750
REMARK  312  A    between atoms: _749  and  _752
REMARK  313  A    between atoms: _752  and  _753
REMARK  314  A    between atoms: _753  and  _754
REMARK  315  A    between atoms: _756  and  _758
REMARK  316  A    between atoms: _758  and  _759
REMARK  317  A    between atoms: _758  and  _761
REMARK  318  A    between atoms: _761  and  _762
REMARK  319  A    between atoms: _767  and  _769
REMARK  320  A    between atoms: _769  and  _770
REMARK  321  A    between atoms: _769  and  _772
REMARK  322  A    between atoms: _772  and  _773
REMARK  323  A    between atoms: _773  and  _774
REMARK  324  A    between atoms: _774  and  _775
REMARK  325  A    between atoms: _784  and  _786
REMARK  326  A    between atoms: _786  and  _787
REMARK  327  A    between atoms: _786  and  _789
REMARK  328  A    between atoms: _789  and  _790
REMARK  329  A    between atoms: _790  and  _791
REMARK  330  A    between atoms: _794  and  _796
REMARK  331  A    between atoms: _796  and  _797
REMARK  332  A    between atoms: _796  and  _799
REMARK  333  A    between atoms: _802  and  _804
REMARK  334  A    between atoms: _804  and  _805
REMARK  335  A    between atoms: _804  and  _807
REMARK  336  A    between atoms: _807  and  _808
REMARK                            x       y       z     vdW  Elec       q    Type
REMARK                         _______ _______ _______ _____ _____    ______ ____
ROOT
ATOM      1  O   HOH     1      12.454  -5.315  -8.193  0.00  0.00    +0.000 OA
ENDROOT
TORSDOF 0
REMARK  Name = ../refined-set-2016/1i5r/1i5r_pocket.pdb
REMARK  336 active torsions:
REMARK  status: ('A' for Active; 'I' for Inactive)
REMARK    1  A    between atoms: _1  and  _3
REMARK    2  A    between atoms: _3  and  _4
REMARK    3  A    between atoms: _3  and  _6
REMARK    4  A    between atoms: _6  and  _7
REMARK    5  A    between atoms: _10  and  _12
REMARK    6  A    between atoms: _12  and  _13
REMARK    7  A    between atoms: _12  and  _15
REMARK    8  A    between atoms: _15  and  _16
REMARK    9  A    between atoms: _19  and  _21
REMARK   10  A    between atoms: _21  and  _22
REMARK   11  A    between atoms: _24  and  _26
REMARK   12  A    between atoms: _26  and  _27
REMARK   13  A    between atoms: _26  and  _29
REMARK   14  A    between atoms: _31  and  _33
REMARK   15  A    between atoms: _33  and  _34
REMARK   16  A    between atoms: _33  and  _36
REMARK   17  A    between atoms: _36  and  _37
REMARK   18  A    between atoms: _39  and  _41
REMARK   19  A    between atoms: _41  and  _42
REMARK   20  A    between atoms: _41  and  _44
REMARK   21  A    between atoms: _44  and  _45
REMARK   22  A    between atoms: _47  and  _49
REMARK   23  A    between atoms: _49  and  _50
REMARK   24  A    between atoms: _52  and  _54
REMARK   25  A    between atoms: _54  and  _55
REMARK   26  A    between atoms: _54  and  _57
REMARK   27  A    between atoms: _57  and  _58
REMARK   28  A    between atoms: _61  and  _63
REMARK   29  A    between atoms: _63  and  _64
REMARK   30  A    between atoms: _66  and  _68
REMARK   31  A    between atoms: _68  and  _69
REMARK   32  A    between atoms: _68  and  _71
REMARK   33  A    between atoms: _71  and  _72
REMARK   34  A    between atoms: _75  and  _77
REMARK   35  A    between atoms: _77  and  _78
REMARK   36  A    between atoms: _77  and  _80
REMARK   37  A    between atoms: _80  and  _81
REMARK   38  A    between atoms: _86  and  _88
REMARK   39  A    between atoms: _88  and  _89
REMARK   40  A    between atoms: _88  and  _91
REMARK   41  A    between atoms: _91  and  _92
REMARK   42  A    between atoms: _95  and  _97
REMARK   43  A    between atoms: _97  and  _98
REMARK   44  A    between atoms: _97  and  _100
REMARK   45  A    between atoms: _100  and  _101
REMARK   46  A    between atoms: _104  and  _106
REMARK   47  A    between atoms: _106  and  _107
REMARK   48  A    between atoms: _106  and  _109
REMARK   49  A    between atoms: _109  and  _110
REMARK   50  A    between atoms: _110  and  _111
REMARK   51  A    between atoms: _111  and  _112
REMARK   52  A    between atoms: _121  and  _123
REMARK   53  A    between atoms: _123  and  _124
REMARK   54  A    between atoms: _123  and  _126
REMARK   55  A    between atoms: _126  and  _127
REMARK   56  A    between atoms: _130  and  _132
REMARK   57  A    between atoms: _132  and  _133
REMARK   58  A    between atoms: _132  and  _135
REMARK   59  A    between atoms: _135  and  _136
REMARK   60  A    between atoms: _139  and  _141
REMARK   61  A    between atoms: _141  and  _142
REMARK   62  A    between atoms: _141  and  _144
REMARK   63  A    between atoms: _144  and  _145
REMARK   64  A    between atoms: _145  and  _146
REMARK   65  A    between atoms: _146  and  _147
REMARK   66  A    between atoms: _156  and  _158
REMARK   67  A    between atoms: _158  and  _159
REMARK   68  A    between atoms: _158  and  _161
REMARK   69  A    between atoms: _161  and  _162
REMARK   70  A    between atoms: _165  and  _167
REMARK   71  A    between atoms: _167  and  _168
REMARK   72  A    between atoms: _167  and  _170
REMARK   73  A    between atoms: _170  and  _171
REMARK   74  A    between atoms: _171  and  _172
REMARK   75  A    between atoms: _177  and  _179
REMARK   76  A    between atoms: _179  and  _180
REMARK   77  A    between atoms: _179  and  _182
REMARK   78  A    between atoms: _182  and  _183
REMARK   79  A    between atoms: _186  and  _188
REMARK   80  A    between atoms: _188  and  _189
REMARK   81  A    between atoms: _188  and  _191
REMARK   82  A    between atoms: _191  and  _192
REMARK   83  A    between atoms: _195  and  _197
REMARK   84  A    between atoms: _197  and  _198
REMARK   85  A    between atoms: _197  and  _200
REMARK   86  A    between atoms: _203  and  _205
REMARK   87  A    between atoms: _205  and  _206
REMARK   88  A    between atoms: _205  and  _208
REMARK   89  A    between atoms: _208  and  _209
REMARK   90  A    between atoms: _209  and  _210
REMARK   91  A    between atoms: _210  and  _211
REMARK   92  A    between atoms: _220  and  _222
REMARK   93  A    between atoms: _222  and  _223
REMARK   94  A    between atoms: _222  and  _225
REMARK   95  A    between atoms: _225  and  _226
REMARK   96  A    between atoms: _229  and  _231
REMARK   97  A    between atoms: _231  and  _232
REMARK   98  A    between atoms: _231  and  _234
REMARK   99  A    between atoms: _234  and  _235
REMARK  100  A    between atoms: _237  and  _239
REMARK  101  A    between atoms: _239  and  _240
REMARK  102  A    between atoms: _239  and  _242
REMARK  103  A    between atoms: _245  and  _247
REMARK  104  A    between atoms: _247  and  _248
REMARK  105  A    between atoms: _247  and  _250
REMARK  106  A    between atoms: _252  and  _254
REMARK  107  A    between atoms: _254  and  _255
REMARK  108  A    between atoms: _254  and  _257
REMARK  109  A    between atoms: _257  and  _258
REMARK  110  A    between atoms: _263  and  _265
REMARK  111  A    between atoms: _265  and  _266
REMARK  112  A    between atoms: _269  and  _271
REMARK  113  A    between atoms: _271  and  _272
REMARK  114  A    between atoms: _274  and  _276
REMARK  115  A    between atoms: _276  and  _277
REMARK  116  A    between atoms: _276  and  _279
REMARK  117  A    between atoms: _279  and  _280
REMARK  118  A    between atoms: _283  and  _285
REMARK  119  A    between atoms: _285  and  _286
REMARK  120  A    between atoms: _288  and  _290
REMARK  121  A    between atoms: _290  and  _291
REMARK  122  A    between atoms: _290  and  _293
REMARK  123  A    between atoms: _293  and  _294
REMARK  124  A    between atoms: _297  and  _299
REMARK  125  A    between atoms: _299  and  _300
REMARK  126  A    between atoms: _299  and  _302
REMARK  127  A    between atoms: _302  and  _303
REMARK  128  A    between atoms: _306  and  _308
REMARK  129  A    between atoms: _308  and  _309
REMARK  130  A    between atoms: _308  and  _311
REMARK  131  A    between atoms: _311  and  _312
REMARK  132  A    between atoms: _314  and  _316
REMARK  133  A    between atoms: _316  and  _317
REMARK  134  A    between atoms: _316  and  _319
REMARK  135  A    between atoms: _319  and  _320
REMARK  136  A    between atoms: _323  and  _325
REMARK  137  A    between atoms: _325  and  _326
REMARK  138  A    between atoms: _325  and  _328
REMARK  139  A    between atoms: _331  and  _333
REMARK  140  A    between atoms: _333  and  _334
REMARK  141  A    between atoms: _333  and  _336
REMARK  142  A    between atoms: _336  and  _337
REMARK  143  A    between atoms: _342  and  _344
REMARK  144  A    between atoms: _344  and  _345
REMARK  145  A    between atoms: _347  and  _349
REMARK  146  A    between atoms: _349  and  _350
REMARK  147  A    between atoms: _349  and  _352
REMARK  148  A    between atoms: _352  and  _353
REMARK  149  A    between atoms: _353  and  _354
REMARK  150  A    between atoms: _354  and  _355
REMARK  151  A    between atoms: _364  and  _366
REMARK  152  A    between atoms: _366  and  _367
REMARK  153  A    between atoms: _366  and  _369
REMARK  154  A    between atoms: _369  and  _370
REMARK  155  A    between atoms: _370  and  _371
REMARK  156  A    between atoms: _373  and  _375
REMARK  157  A    between atoms: _375  and  _376
REMARK  158  A    between atoms: _375  and  _378
REMARK  159  A    between atoms: _378  and  _379
REMARK  160  A    between atoms: _382  and  _384
REMARK  161  A    between atoms: _384  and  _385
REMARK  162  A    between atoms: _387  and  _389
REMARK  163  A    between atoms: _389  and  _390
REMARK  164  A    between atoms: _389  and  _392
REMARK  165  A    between atoms: _392  and  _393
REMARK  166  A    between atoms: _395  and  _397
REMARK  167  A    between atoms: _397  and  _398
REMARK  168  A    between atoms: _397  and  _400
REMARK  169  A    between atoms: _403  and  _405
REMARK  170  A    between atoms: _405  and  _406
REMARK  171  A    between atoms: _408  and  _410
REMARK  172  A    between atoms: _410  and  _411
REMARK  173  A    between atoms: _413  and  _415
REMARK  174  A    between atoms: _415  and  _416
REMARK  175  A    between atoms: _415  and  _418
REMARK  176  A    between atoms: _418  and  _419
REMARK  177  A    between atoms: _422  and  _424
REMARK  178  A    between atoms: _424  and  _425
REMARK  179  A    between atoms: _424  and  _427
REMARK  180  A    between atoms: _427  and  _428
REMARK  181  A    between atoms: _428  and  _429
REMARK  182  A    between atoms: _431  and  _433
REMARK  183  A    between atoms: _433  and  _434
REMARK  184  A    between atoms: _436  and  _438
REMARK  185  A    between atoms: _438  and  _439
REMARK  186  A    between atoms: _438  and  _441
REMARK  187  A    between atoms: _441  and  _442
REMARK  188  A    between atoms: _446  and  _447
REMARK  189  A    between atoms: _452  and  _454
REMARK  190  A    between atoms: _454  and  _455
REMARK  191  A    between atoms: _454  and  _457
REMARK  192  A    between atoms: _457  and  _458
REMARK  193  A    between atoms: _463  and  _465
REMARK  194  A    between atoms: _465  and  _466
REMARK  195  A    between atoms: _465  and  _468
REMARK  196  A    between atoms: _468  and  _469
REMARK  197  A    between atoms: _474  and  _475
REMARK  198  A    between atoms: _477  and  _479
REMARK  199  A    between atoms: _479  and  _480
REMARK  200  A    between atoms: _479  and  _482
REMARK  201  A    between atoms: _484  and  _486
REMARK  202  A    between atoms: _486  and  _487
REMARK  203  A    between atoms: _486  and  _489
REMARK  204  A    between atoms: _489  and  _490
REMARK  205  A    between atoms: _490  and  _491
REMARK  206  A    between atoms: _491  and  _492
REMARK  207  A    between atoms: _492  and  _493
REMARK  208  A    between atoms: _497  and  _499
REMARK  209  A    between atoms: _499  and  _500
REMARK  210  A    between atoms: _499  and  _502
REMARK  211  A    between atoms: _502  and  _503
REMARK  212  A    between atoms: _503  and  _504
REMARK  213  A    between atoms: _507  and  _509
REMARK  214  A    between atoms: _509  and  _510
REMARK  215  A    between atoms: _509  and  _512
REMARK  216  A    between atoms: _514  and  _516
REMARK  217  A    between atoms: _516  and  _517
REMARK  218  A    between atoms: _520  and  _521
REMARK  219  A    between atoms: _526  and  _528
REMARK  220  A    between atoms: _528  and  _529
REMARK  221  A    between atoms: _528  and  _531
REMARK  222  A    between atoms: _534  and  _536
REMARK  223  A    between atoms: _536  and  _537
REMARK  224  A    between atoms: _536  and  _539
REMARK  225  A    between atoms: _539  and  _540
REMARK  226  A    between atoms: _543  and  _545
REMARK  227  A    between atoms: _545  and  _546
REMARK  228  A    between atoms: _545  and  _548
REMARK  229  A    between atoms: _548  and  _549
REMARK  230  A    between atoms: _555  and  _557
REMARK  231  A    between atoms: _557  and  _558
REMARK  232  A    between atoms: _557  and  _560
REMARK  233  A    between atoms: _560  and  _561
REMARK  234  A    between atoms: _561  and  _562
REMARK  235  A    between atoms: _564  and  _566
REMARK  236  A    between atoms: _566  and  _567
REMARK  237  A    between atoms: _566  and  _569
REMARK  238  A    between atoms: _569  and  _570
REMARK  239  A    between atoms: _570  and  _571
REMARK  240  A    between atoms: _574  and  _576
REMARK  241  A    between atoms: _576  and  _577
REMARK  242  A    between atoms: _576  and  _579
REMARK  243  A    between atoms: _579  and  _580
REMARK  244  A    between atoms: _580  and  _581
REMARK  245  A    between atoms: _581  and  _582
REMARK  246  A    between atoms: _582  and  _583
REMARK  247  A    between atoms: _587  and  _589
REMARK  248  A    between atoms: _589  and  _590
REMARK  249  A    between atoms: _589  and  _592
REMARK  250  A    between atoms: _592  and  _593
REMARK  251  A    between atoms: _598  and  _599
REMARK  252  A    between atoms: _601  and  _603
REMARK  253  A    between atoms: _603  and  _604
REMARK  254  A    between atoms: _603  and  _606
REMARK  255  A    between atoms: _606  and  _607
REMARK  256  A    between atoms: _610  and  _612
REMARK  257  A    between atoms: _612  and  _613
REMARK  258  A    between atoms: _612  and  _615
REMARK  259  A    between atoms: _615  and  _616
REMARK  260  A    between atoms: _621  and  _623
REMARK  261  A    between atoms: _623  and  _624
REMARK  262  A    between atoms: _623  and  _626
REMARK  263  A    between atoms: _626  and  _627
REMARK  264  A    between atoms: _629  and  _631
REMARK  265  A    between atoms: _631  and  _632
REMARK  266  A    between atoms: _631  and  _634
REMARK  267  A    between atoms: _634  and  _635
REMARK  268  A    between atoms: _635  and  _636
REMARK  269  A    between atoms: _636  and  _637
REMARK  270  A    between atoms: _637  and  _638
REMARK  271  A    between atoms: _642  and  _644
REMARK  272  A    between atoms: _644  and  _645
REMARK  273  A    between atoms: _644  and  _647
REMARK  274  A    between atoms: _647  and  _648
REMARK  275  A    between atoms: _648  and  _649
REMARK  276  A    between atoms: _654  and  _656
REMARK  277  A    between atoms: _656  and  _657
REMARK  278  A    between atoms: _656  and  _659
REMARK  279  A    between atoms: _662  and  _664
REMARK  280  A    between atoms: _664  and  _665
REMARK  281  A    between atoms: _664  and  _667
REMARK  282  A    between atoms: _667  and  _668
REMARK  283  A    between atoms: _674  and  _676
REMARK  284  A    between atoms: _676  and  _677
REMARK  285  A    between atoms: _680  and  _682
REMARK  286  A    between atoms: _682  and  _683
REMARK  287  A    between atoms: _682  and  _685
REMARK  288  A    between atoms: _685  and  _686
REMARK  289  A    between atoms: _689  and  _691
REMARK  290  A    between atoms: _691  and  _692
REMARK  291  A    between atoms: _691  and  _694
REMARK  292  A    between atoms: _694  and  _695
REMARK  293  A    between atoms: _695  and  _696
REMARK  294  A    between atoms: _696  and  _697
REMARK  295  A    between atoms: _706  and  _708
REMARK  296  A    between atoms: _708  and  _709
REMARK  297  A    between atoms: _708  and  _711
REMARK  298  A    between atoms: _711  and  _712
REMARK  299  A    between atoms: _718  and  _720
REMARK  300  A    between atoms: _720  and  _721
REMARK  301  A    between atoms: _720  and  _723
REMARK  302  A    between atoms: _723  and  _724
REMARK  303  A    between atoms: _727  and  _729
REMARK  304  A    between atoms: _729  and  _730
REMARK  305  A    between atoms: _729  and  _732
REMARK  306  A    between atoms: _732  and  _733
REMARK  307  A    between atoms: _738  and  _739
REMARK  308  A    between atoms: _741  and  _743
REMARK  309  A    between atoms: _743  and  _744
REMARK  310  A    between atoms: _747  and  _749
REMARK  311  A    between atoms: _749  and  _750
REMARK  312  A    between atoms: _749  and  _752
REMARK  313  A    between atoms: _752  and  _753
REMARK  314  A    between atoms: _753  and  _754
REMARK  315  A    between atoms: _756  and  _758
REMARK  316  A    between atoms: _758  and  _759
REMARK  317  A    between atoms: _758  and  _761
REMARK  318  A    between atoms: _761  and  _762
REMARK  319  A    between atoms: _767  and  _769
REMARK  320  A    between atoms: _769  and  _770
REMARK  321  A    between atoms: _769  and  _772
REMARK  322  A    between atoms: _772  and  _773
REMARK  323  A    between atoms: _773  and  _774
REMARK  324  A    between atoms: _774  and  _775
REMARK  325  A    between atoms: _784  and  _786
REMARK  326  A    between atoms: _786  and  _787
REMARK  327  A    between atoms: _786  and  _789
REMARK  328  A    between atoms: _789  and  _790
REMARK  329  A    between atoms: _790  and  _791
REMARK  330  A    between atoms: _794  and  _796
REMARK  331  A    between atoms: _796  and  _797
REMARK  332  A    between atoms: _796  and  _799
REMARK  333  A    between atoms: _802  and  _804
REMARK  334  A    between atoms: _804  and  _805
REMARK  335  A    between atoms: _804  and  _807
REMARK  336  A    between atoms: _807  and  _808
REMARK                            x       y       z     vdW  Elec       q    Type
REMARK                         _______ _______ _______ _____ _____    ______ ____
ROOT
ATOM      1  O   HOH     1      18.220   0.597  -4.082  0.00  0.00    +0.000 OA
ENDROOT
TORSDOF 0
REMARK  Name = ../refined-set-2016/1i5r/1i5r_pocket.pdb
REMARK  336 active torsions:
REMARK  status: ('A' for Active; 'I' for Inactive)
REMARK    1  A    between atoms: _1  and  _3
REMARK    2  A    between atoms: _3  and  _4
REMARK    3  A    between atoms: _3  and  _6
REMARK    4  A    between atoms: _6  and  _7
REMARK    5  A    between atoms: _10  and  _12
REMARK    6  A    between atoms: _12  and  _13
REMARK    7  A    between atoms: _12  and  _15
REMARK    8  A    between atoms: _15  and  _16
REMARK    9  A    between atoms: _19  and  _21
REMARK   10  A    between atoms: _21  and  _22
REMARK   11  A    between atoms: _24  and  _26
REMARK   12  A    between atoms: _26  and  _27
REMARK   13  A    between atoms: _26  and  _29
REMARK   14  A    between atoms: _31  and  _33
REMARK   15  A    between atoms: _33  and  _34
REMARK   16  A    between atoms: _33  and  _36
REMARK   17  A    between atoms: _36  and  _37
REMARK   18  A    between atoms: _39  and  _41
REMARK   19  A    between atoms: _41  and  _42
REMARK   20  A    between atoms: _41  and  _44
REMARK   21  A    between atoms: _44  and  _45
REMARK   22  A    between atoms: _47  and  _49
REMARK   23  A    between atoms: _49  and  _50
REMARK   24  A    between atoms: _52  and  _54
REMARK   25  A    between atoms: _54  and  _55
REMARK   26  A    between atoms: _54  and  _57
REMARK   27  A    between atoms: _57  and  _58
REMARK   28  A    between atoms: _61  and  _63
REMARK   29  A    between atoms: _63  and  _64
REMARK   30  A    between atoms: _66  and  _68
REMARK   31  A    between atoms: _68  and  _69
REMARK   32  A    between atoms: _68  and  _71
REMARK   33  A    between atoms: _71  and  _72
REMARK   34  A    between atoms: _75  and  _77
REMARK   35  A    between atoms: _77  and  _78
REMARK   36  A    between atoms: _77  and  _80
REMARK   37  A    between atoms: _80  and  _81
REMARK   38  A    between atoms: _86  and  _88
REMARK   39  A    between atoms: _88  and  _89
REMARK   40  A    between atoms: _88  and  _91
REMARK   41  A    between atoms: _91  and  _92
REMARK   42  A    between atoms: _95  and  _97
REMARK   43  A    between atoms: _97  and  _98
REMARK   44  A    between atoms: _97  and  _100
REMARK   45  A    between atoms: _100  and  _101
REMARK   46  A    between atoms: _104  and  _106
REMARK   47  A    between atoms: _106  and  _107
REMARK   48  A    between atoms: _106  and  _109
REMARK   49  A    between atoms: _109  and  _110
REMARK   50  A    between atoms: _110  and  _111
REMARK   51  A    between atoms: _111  and  _112
REMARK   52  A    between atoms: _121  and  _123
REMARK   53  A    between atoms: _123  and  _124
REMARK   54  A    between atoms: _123  and  _126
REMARK   55  A    between atoms: _126  and  _127
REMARK   56  A    between atoms: _130  and  _132
REMARK   57  A    between atoms: _132  and  _133
REMARK   58  A    between atoms: _132  and  _135
REMARK   59  A    between atoms: _135  and  _136
REMARK   60  A    between atoms: _139  and  _141
REMARK   61  A    between atoms: _141  and  _142
REMARK   62  A    between atoms: _141  and  _144
REMARK   63  A    between atoms: _144  and  _145
REMARK   64  A    between atoms: _145  and  _146
REMARK   65  A    between atoms: _146  and  _147
REMARK   66  A    between atoms: _156  and  _158
REMARK   67  A    between atoms: _158  and  _159
REMARK   68  A    between atoms: _158  and  _161
REMARK   69  A    between atoms: _161  and  _162
REMARK   70  A    between atoms: _165  and  _167
REMARK   71  A    between atoms: _167  and  _168
REMARK   72  A    between atoms: _167  and  _170
REMARK   73  A    between atoms: _170  and  _171
REMARK   74  A    between atoms: _171  and  _172
REMARK   75  A    between atoms: _177  and  _179
REMARK   76  A    between atoms: _179  and  _180
REMARK   77  A    between atoms: _179  and  _182
REMARK   78  A    between atoms: _182  and  _183
REMARK   79  A    between atoms: _186  and  _188
REMARK   80  A    between atoms: _188  and  _189
REMARK   81  A    between atoms: _188  and  _191
REMARK   82  A    between atoms: _191  and  _192
REMARK   83  A    between atoms: _195  and  _197
REMARK   84  A    between atoms: _197  and  _198
REMARK   85  A    between atoms: _197  and  _200
REMARK   86  A    between atoms: _203  and  _205
REMARK   87  A    between atoms: _205  and  _206
REMARK   88  A    between atoms: _205  and  _208
REMARK   89  A    between atoms: _208  and  _209
REMARK   90  A    between atoms: _209  and  _210
REMARK   91  A    between atoms: _210  and  _211
REMARK   92  A    between atoms: _220  and  _222
REMARK   93  A    between atoms: _222  and  _223
REMARK   94  A    between atoms: _222  and  _225
REMARK   95  A    between atoms: _225  and  _226
REMARK   96  A    between atoms: _229  and  _231
REMARK   97  A    between atoms: _231  and  _232
REMARK   98  A    between atoms: _231  and  _234
REMARK   99  A    between atoms: _234  and  _235
REMARK  100  A    between atoms: _237  and  _239
REMARK  101  A    between atoms: _239  and  _240
REMARK  102  A    between atoms: _239  and  _242
REMARK  103  A    between atoms: _245  and  _247
REMARK  104  A    between atoms: _247  and  _248
REMARK  105  A    between atoms: _247  and  _250
REMARK  106  A    between atoms: _252  and  _254
REMARK  107  A    between atoms: _254  and  _255
REMARK  108  A    between atoms: _254  and  _257
REMARK  109  A    between atoms: _257  and  _258
REMARK  110  A    between atoms: _263  and  _265
REMARK  111  A    between atoms: _265  and  _266
REMARK  112  A    between atoms: _269  and  _271
REMARK  113  A    between atoms: _271  and  _272
REMARK  114  A    between atoms: _274  and  _276
REMARK  115  A    between atoms: _276  and  _277
REMARK  116  A    between atoms: _276  and  _279
REMARK  117  A    between atoms: _279  and  _280
REMARK  118  A    between atoms: _283  and  _285
REMARK  119  A    between atoms: _285  and  _286
REMARK  120  A    between atoms: _288  and  _290
REMARK  121  A    between atoms: _290  and  _291
REMARK  122  A    between atoms: _290  and  _293
REMARK  123  A    between atoms: _293  and  _294
REMARK  124  A    between atoms: _297  and  _299
REMARK  125  A    between atoms: _299  and  _300
REMARK  126  A    between atoms: _299  and  _302
REMARK  127  A    between atoms: _302  and  _303
REMARK  128  A    between atoms: _306  and  _308
REMARK  129  A    between atoms: _308  and  _309
REMARK  130  A    between atoms: _308  and  _311
REMARK  131  A    between atoms: _311  and  _312
REMARK  132  A    between atoms: _314  and  _316
REMARK  133  A    between atoms: _316  and  _317
REMARK  134  A    between atoms: _316  and  _319
REMARK  135  A    between atoms: _319  and  _320
REMARK  136  A    between atoms: _323  and  _325
REMARK  137  A    between atoms: _325  and  _326
REMARK  138  A    between atoms: _325  and  _328
REMARK  139  A    between atoms: _331  and  _333
REMARK  140  A    between atoms: _333  and  _334
REMARK  141  A    between atoms: _333  and  _336
REMARK  142  A    between atoms: _336  and  _337
REMARK  143  A    between atoms: _342  and  _344
REMARK  144  A    between atoms: _344  and  _345
REMARK  145  A    between atoms: _347  and  _349
REMARK  146  A    between atoms: _349  and  _350
REMARK  147  A    between atoms: _349  and  _352
REMARK  148  A    between atoms: _352  and  _353
REMARK  149  A    between atoms: _353  and  _354
REMARK  150  A    between atoms: _354  and  _355
REMARK  151  A    between atoms: _364  and  _366
REMARK  152  A    between atoms: _366  and  _367
REMARK  153  A    between atoms: _366  and  _369
REMARK  154  A    between atoms: _369  and  _370
REMARK  155  A    between atoms: _370  and  _371
REMARK  156  A    between atoms: _373  and  _375
REMARK  157  A    between atoms: _375  and  _376
REMARK  158  A    between atoms: _375  and  _378
REMARK  159  A    between atoms: _378  and  _379
REMARK  160  A    between atoms: _382  and  _384
REMARK  161  A    between atoms: _384  and  _385
REMARK  162  A    between atoms: _387  and  _389
REMARK  163  A    between atoms: _389  and  _390
REMARK  164  A    between atoms: _389  and  _392
REMARK  165  A    between atoms: _392  and  _393
REMARK  166  A    between atoms: _395  and  _397
REMARK  167  A    between atoms: _397  and  _398
REMARK  168  A    between atoms: _397  and  _400
REMARK  169  A    between atoms: _403  and  _405
REMARK  170  A    between atoms: _405  and  _406
REMARK  171  A    between atoms: _408  and  _410
REMARK  172  A    between atoms: _410  and  _411
REMARK  173  A    between atoms: _413  and  _415
REMARK  174  A    between atoms: _415  and  _416
REMARK  175  A    between atoms: _415  and  _418
REMARK  176  A    between atoms: _418  and  _419
REMARK  177  A    between atoms: _422  and  _424
REMARK  178  A    between atoms: _424  and  _425
REMARK  179  A    between atoms: _424  and  _427
REMARK  180  A    between atoms: _427  and  _428
REMARK  181  A    between atoms: _428  and  _429
REMARK  182  A    between atoms: _431  and  _433
REMARK  183  A    between atoms: _433  and  _434
REMARK  184  A    between atoms: _436  and  _438
REMARK  185  A    between atoms: _438  and  _439
REMARK  186  A    between atoms: _438  and  _441
REMARK  187  A    between atoms: _441  and  _442
REMARK  188  A    between atoms: _446  and  _447
REMARK  189  A    between atoms: _452  and  _454
REMARK  190  A    between atoms: _454  and  _455
REMARK  191  A    between atoms: _454  and  _457
REMARK  192  A    between atoms: _457  and  _458
REMARK  193  A    between atoms: _463  and  _465
REMARK  194  A    between atoms: _465  and  _466
REMARK  195  A    between atoms: _465  and  _468
REMARK  196  A    between atoms: _468  and  _469
REMARK  197  A    between atoms: _474  and  _475
REMARK  198  A    between atoms: _477  and  _479
REMARK  199  A    between atoms: _479  and  _480
REMARK  200  A    between atoms: _479  and  _482
REMARK  201  A    between atoms: _484  and  _486
REMARK  202  A    between atoms: _486  and  _487
REMARK  203  A    between atoms: _486  and  _489
REMARK  204  A    between atoms: _489  and  _490
REMARK  205  A    between atoms: _490  and  _491
REMARK  206  A    between atoms: _491  and  _492
REMARK  207  A    between atoms: _492  and  _493
REMARK  208  A    between atoms: _497  and  _499
REMARK  209  A    between atoms: _499  and  _500
REMARK  210  A    between atoms: _499  and  _502
REMARK  211  A    between atoms: _502  and  _503
REMARK  212  A    between atoms: _503  and  _504
REMARK  213  A    between atoms: _507  and  _509
REMARK  214  A    between atoms: _509  and  _510
REMARK  215  A    between atoms: _509  and  _512
REMARK  216  A    between atoms: _514  and  _516
REMARK  217  A    between atoms: _516  and  _517
REMARK  218  A    between atoms: _520  and  _521
REMARK  219  A    between atoms: _526  and  _528
REMARK  220  A    between atoms: _528  and  _529
REMARK  221  A    between atoms: _528  and  _531
REMARK  222  A    between atoms: _534  and  _536
REMARK  223  A    between atoms: _536  and  _537
REMARK  224  A    between atoms: _536  and  _539
REMARK  225  A    between atoms: _539  and  _540
REMARK  226  A    between atoms: _543  and  _545
REMARK  227  A    between atoms: _545  and  _546
REMARK  228  A    between atoms: _545  and  _548
REMARK  229  A    between atoms: _548  and  _549
REMARK  230  A    between atoms: _555  and  _557
REMARK  231  A    between atoms: _557  and  _558
REMARK  232  A    between atoms: _557  and  _560
REMARK  233  A    between atoms: _560  and  _561
REMARK  234  A    between atoms: _561  and  _562
REMARK  235  A    between atoms: _564  and  _566
REMARK  236  A    between atoms: _566  and  _567
REMARK  237  A    between atoms: _566  and  _569
REMARK  238  A    between atoms: _569  and  _570
REMARK  239  A    between atoms: _570  and  _571
REMARK  240  A    between atoms: _574  and  _576
REMARK  241  A    between atoms: _576  and  _577
REMARK  242  A    between atoms: _576  and  _579
REMARK  243  A    between atoms: _579  and  _580
REMARK  244  A    between atoms: _580  and  _581
REMARK  245  A    between atoms: _581  and  _582
REMARK  246  A    between atoms: _582  and  _583
REMARK  247  A    between atoms: _587  and  _589
REMARK  248  A    between atoms: _589  and  _590
REMARK  249  A    between atoms: _589  and  _592
REMARK  250  A    between atoms: _592  and  _593
REMARK  251  A    between atoms: _598  and  _599
REMARK  252  A    between atoms: _601  and  _603
REMARK  253  A    between atoms: _603  and  _604
REMARK  254  A    between atoms: _603  and  _606
REMARK  255  A    between atoms: _606  and  _607
REMARK  256  A    between atoms: _610  and  _612
REMARK  257  A    between atoms: _612  and  _613
REMARK  258  A    between atoms: _612  and  _615
REMARK  259  A    between atoms: _615  and  _616
REMARK  260  A    between atoms: _621  and  _623
REMARK  261  A    between atoms: _623  and  _624
REMARK  262  A    between atoms: _623  and  _626
REMARK  263  A    between atoms: _626  and  _627
REMARK  264  A    between atoms: _629  and  _631
REMARK  265  A    between atoms: _631  and  _632
REMARK  266  A    between atoms: _631  and  _634
REMARK  267  A    between atoms: _634  and  _635
REMARK  268  A    between atoms: _635  and  _636
REMARK  269  A    between atoms: _636  and  _637
REMARK  270  A    between atoms: _637  and  _638
REMARK  271  A    between atoms: _642  and  _644
REMARK  272  A    between atoms: _644  and  _645
REMARK  273  A    between atoms: _644  and  _647
REMARK  274  A    between atoms: _647  and  _648
REMARK  275  A    between atoms: _648  and  _649
REMARK  276  A    between atoms: _654  and  _656
REMARK  277  A    between atoms: _656  and  _657
REMARK  278  A    between atoms: _656  and  _659
REMARK  279  A    between atoms: _662  and  _664
REMARK  280  A    between atoms: _664  and  _665
REMARK  281  A    between atoms: _664  and  _667
REMARK  282  A    between atoms: _667  and  _668
REMARK  283  A    between atoms: _674  and  _676
REMARK  284  A    between atoms: _676  and  _677
REMARK  285  A    between atoms: _680  and  _682
REMARK  286  A    between atoms: _682  and  _683
REMARK  287  A    between atoms: _682  and  _685
REMARK  288  A    between atoms: _685  and  _686
REMARK  289  A    between atoms: _689  and  _691
REMARK  290  A    between atoms: _691  and  _692
REMARK  291  A    between atoms: _691  and  _694
REMARK  292  A    between atoms: _694  and  _695
REMARK  293  A    between atoms: _695  and  _696
REMARK  294  A    between atoms: _696  and  _697
REMARK  295  A    between atoms: _706  and  _708
REMARK  296  A    between atoms: _708  and  _709
REMARK  297  A    between atoms: _708  and  _711
REMARK  298  A    between atoms: _711  and  _712
REMARK  299  A    between atoms: _718  and  _720
REMARK  300  A    between atoms: _720  and  _721
REMARK  301  A    between atoms: _720  and  _723
REMARK  302  A    between atoms: _723  and  _724
REMARK  303  A    between atoms: _727  and  _729
REMARK  304  A    between atoms: _729  and  _730
REMARK  305  A    between atoms: _729  and  _732
REMARK  306  A    between atoms: _732  and  _733
REMARK  307  A    between atoms: _738  and  _739
REMARK  308  A    between atoms: _741  and  _743
REMARK  309  A    between atoms: _743  and  _744
REMARK  310  A    between atoms: _747  and  _749
REMARK  311  A    between atoms: _749  and  _750
REMARK  312  A    between atoms: _749  and  _752
REMARK  313  A    between atoms: _752  and  _753
REMARK  314  A    between atoms: _753  and  _754
REMARK  315  A    between atoms: _756  and  _758
REMARK  316  A    between atoms: _758  and  _759
REMARK  317  A    between atoms: _758  and  _761
REMARK  318  A    between atoms: _761  and  _762
REMARK  319  A    between atoms: _767  and  _769
REMARK  320  A    between atoms: _769  and  _770
REMARK  321  A    between atoms: _769  and  _772
REMARK  322  A    between atoms: _772  and  _773
REMARK  323  A    between atoms: _773  and  _774
REMARK  324  A    between atoms: _774  and  _775
REMARK  325  A    between atoms: _784  and  _786
REMARK  326  A    between atoms: _786  and  _787
REMARK  327  A    between atoms: _786  and  _789
REMARK  328  A    between atoms: _789  and  _790
REMARK  329  A    between atoms: _790  and  _791
REMARK  330  A    between atoms: _794  and  _796
REMARK  331  A    between atoms: _796  and  _797
REMARK  332  A    between atoms: _796  and  _799
REMARK  333  A    between atoms: _802  and  _804
REMARK  334  A    between atoms: _804  and  _805
REMARK  335  A    between atoms: _804  and  _807
REMARK  336  A    between atoms: _807  and  _808
REMARK                            x       y       z     vdW  Elec       q    Type
REMARK                         _______ _______ _______ _____ _____    ______ ____
ROOT
ATOM      1  O   HOH     1       9.626  -0.188  -1.982  0.00  0.00    +0.000 OA
ENDROOT
TORSDOF 0
REMARK  Name = ../refined-set-2016/1i5r/1i5r_pocket.pdb
REMARK  336 active torsions:
REMARK  status: ('A' for Active; 'I' for Inactive)
REMARK    1  A    between atoms: _1  and  _3
REMARK    2  A    between atoms: _3  and  _4
REMARK    3  A    between atoms: _3  and  _6
REMARK    4  A    between atoms: _6  and  _7
REMARK    5  A    between atoms: _10  and  _12
REMARK    6  A    between atoms: _12  and  _13
REMARK    7  A    between atoms: _12  and  _15
REMARK    8  A    between atoms: _15  and  _16
REMARK    9  A    between atoms: _19  and  _21
REMARK   10  A    between atoms: _21  and  _22
REMARK   11  A    between atoms: _24  and  _26
REMARK   12  A    between atoms: _26  and  _27
REMARK   13  A    between atoms: _26  and  _29
REMARK   14  A    between atoms: _31  and  _33
REMARK   15  A    between atoms: _33  and  _34
REMARK   16  A    between atoms: _33  and  _36
REMARK   17  A    between atoms: _36  and  _37
REMARK   18  A    between atoms: _39  and  _41
REMARK   19  A    between atoms: _41  and  _42
REMARK   20  A    between atoms: _41  and  _44
REMARK   21  A    between atoms: _44  and  _45
REMARK   22  A    between atoms: _47  and  _49
REMARK   23  A    between atoms: _49  and  _50
REMARK   24  A    between atoms: _52  and  _54
REMARK   25  A    between atoms: _54  and  _55
REMARK   26  A    between atoms: _54  and  _57
REMARK   27  A    between atoms: _57  and  _58
REMARK   28  A    between atoms: _61  and  _63
REMARK   29  A    between atoms: _63  and  _64
REMARK   30  A    between atoms: _66  and  _68
REMARK   31  A    between atoms: _68  and  _69
REMARK   32  A    between atoms: _68  and  _71
REMARK   33  A    between atoms: _71  and  _72
REMARK   34  A    between atoms: _75  and  _77
REMARK   35  A    between atoms: _77  and  _78
REMARK   36  A    between atoms: _77  and  _80
REMARK   37  A    between atoms: _80  and  _81
REMARK   38  A    between atoms: _86  and  _88
REMARK   39  A    between atoms: _88  and  _89
REMARK   40  A    between atoms: _88  and  _91
REMARK   41  A    between atoms: _91  and  _92
REMARK   42  A    between atoms: _95  and  _97
REMARK   43  A    between atoms: _97  and  _98
REMARK   44  A    between atoms: _97  and  _100
REMARK   45  A    between atoms: _100  and  _101
REMARK   46  A    between atoms: _104  and  _106
REMARK   47  A    between atoms: _106  and  _107
REMARK   48  A    between atoms: _106  and  _109
REMARK   49  A    between atoms: _109  and  _110
REMARK   50  A    between atoms: _110  and  _111
REMARK   51  A    between atoms: _111  and  _112
REMARK   52  A    between atoms: _121  and  _123
REMARK   53  A    between atoms: _123  and  _124
REMARK   54  A    between atoms: _123  and  _126
REMARK   55  A    between atoms: _126  and  _127
REMARK   56  A    between atoms: _130  and  _132
REMARK   57  A    between atoms: _132  and  _133
REMARK   58  A    between atoms: _132  and  _135
REMARK   59  A    between atoms: _135  and  _136
REMARK   60  A    between atoms: _139  and  _141
REMARK   61  A    between atoms: _141  and  _142
REMARK   62  A    between atoms: _141  and  _144
REMARK   63  A    between atoms: _144  and  _145
REMARK   64  A    between atoms: _145  and  _146
REMARK   65  A    between atoms: _146  and  _147
REMARK   66  A    between atoms: _156  and  _158
REMARK   67  A    between atoms: _158  and  _159
REMARK   68  A    between atoms: _158  and  _161
REMARK   69  A    between atoms: _161  and  _162
REMARK   70  A    between atoms: _165  and  _167
REMARK   71  A    between atoms: _167  and  _168
REMARK   72  A    between atoms: _167  and  _170
REMARK   73  A    between atoms: _170  and  _171
REMARK   74  A    between atoms: _171  and  _172
REMARK   75  A    between atoms: _177  and  _179
REMARK   76  A    between atoms: _179  and  _180
REMARK   77  A    between atoms: _179  and  _182
REMARK   78  A    between atoms: _182  and  _183
REMARK   79  A    between atoms: _186  and  _188
REMARK   80  A    between atoms: _188  and  _189
REMARK   81  A    between atoms: _188  and  _191
REMARK   82  A    between atoms: _191  and  _192
REMARK   83  A    between atoms: _195  and  _197
REMARK   84  A    between atoms: _197  and  _198
REMARK   85  A    between atoms: _197  and  _200
REMARK   86  A    between atoms: _203  and  _205
REMARK   87  A    between atoms: _205  and  _206
REMARK   88  A    between atoms: _205  and  _208
REMARK   89  A    between atoms: _208  and  _209
REMARK   90  A    between atoms: _209  and  _210
REMARK   91  A    between atoms: _210  and  _211
REMARK   92  A    between atoms: _220  and  _222
REMARK   93  A    between atoms: _222  and  _223
REMARK   94  A    between atoms: _222  and  _225
REMARK   95  A    between atoms: _225  and  _226
REMARK   96  A    between atoms: _229  and  _231
REMARK   97  A    between atoms: _231  and  _232
REMARK   98  A    between atoms: _231  and  _234
REMARK   99  A    between atoms: _234  and  _235
REMARK  100  A    between atoms: _237  and  _239
REMARK  101  A    between atoms: _239  and  _240
REMARK  102  A    between atoms: _239  and  _242
REMARK  103  A    between atoms: _245  and  _247
REMARK  104  A    between atoms: _247  and  _248
REMARK  105  A    between atoms: _247  and  _250
REMARK  106  A    between atoms: _252  and  _254
REMARK  107  A    between atoms: _254  and  _255
REMARK  108  A    between atoms: _254  and  _257
REMARK  109  A    between atoms: _257  and  _258
REMARK  110  A    between atoms: _263  and  _265
REMARK  111  A    between atoms: _265  and  _266
REMARK  112  A    between atoms: _269  and  _271
REMARK  113  A    between atoms: _271  and  _272
REMARK  114  A    between atoms: _274  and  _276
REMARK  115  A    between atoms: _276  and  _277
REMARK  116  A    between atoms: _276  and  _279
REMARK  117  A    between atoms: _279  and  _280
REMARK  118  A    between atoms: _283  and  _285
REMARK  119  A    between atoms: _285  and  _286
REMARK  120  A    between atoms: _288  and  _290
REMARK  121  A    between atoms: _290  and  _291
REMARK  122  A    between atoms: _290  and  _293
REMARK  123  A    between atoms: _293  and  _294
REMARK  124  A    between atoms: _297  and  _299
REMARK  125  A    between atoms: _299  and  _300
REMARK  126  A    between atoms: _299  and  _302
REMARK  127  A    between atoms: _302  and  _303
REMARK  128  A    between atoms: _306  and  _308
REMARK  129  A    between atoms: _308  and  _309
REMARK  130  A    between atoms: _308  and  _311
REMARK  131  A    between atoms: _311  and  _312
REMARK  132  A    between atoms: _314  and  _316
REMARK  133  A    between atoms: _316  and  _317
REMARK  134  A    between atoms: _316  and  _319
REMARK  135  A    between atoms: _319  and  _320
REMARK  136  A    between atoms: _323  and  _325
REMARK  137  A    between atoms: _325  and  _326
REMARK  138  A    between atoms: _325  and  _328
REMARK  139  A    between atoms: _331  and  _333
REMARK  140  A    between atoms: _333  and  _334
REMARK  141  A    between atoms: _333  and  _336
REMARK  142  A    between atoms: _336  and  _337
REMARK  143  A    between atoms: _342  and  _344
REMARK  144  A    between atoms: _344  and  _345
REMARK  145  A    between atoms: _347  and  _349
REMARK  146  A    between atoms: _349  and  _350
REMARK  147  A    between atoms: _349  and  _352
REMARK  148  A    between atoms: _352  and  _353
REMARK  149  A    between atoms: _353  and  _354
REMARK  150  A    between atoms: _354  and  _355
REMARK  151  A    between atoms: _364  and  _366
REMARK  152  A    between atoms: _366  and  _367
REMARK  153  A    between atoms: _366  and  _369
REMARK  154  A    between atoms: _369  and  _370
REMARK  155  A    between atoms: _370  and  _371
REMARK  156  A    between atoms: _373  and  _375
REMARK  157  A    between atoms: _375  and  _376
REMARK  158  A    between atoms: _375  and  _378
REMARK  159  A    between atoms: _378  and  _379
REMARK  160  A    between atoms: _382  and  _384
REMARK  161  A    between atoms: _384  and  _385
REMARK  162  A    between atoms: _387  and  _389
REMARK  163  A    between atoms: _389  and  _390
REMARK  164  A    between atoms: _389  and  _392
REMARK  165  A    between atoms: _392  and  _393
REMARK  166  A    between atoms: _395  and  _397
REMARK  167  A    between atoms: _397  and  _398
REMARK  168  A    between atoms: _397  and  _400
REMARK  169  A    between atoms: _403  and  _405
REMARK  170  A    between atoms: _405  and  _406
REMARK  171  A    between atoms: _408  and  _410
REMARK  172  A    between atoms: _410  and  _411
REMARK  173  A    between atoms: _413  and  _415
REMARK  174  A    between atoms: _415  and  _416
REMARK  175  A    between atoms: _415  and  _418
REMARK  176  A    between atoms: _418  and  _419
REMARK  177  A    between atoms: _422  and  _424
REMARK  178  A    between atoms: _424  and  _425
REMARK  179  A    between atoms: _424  and  _427
REMARK  180  A    between atoms: _427  and  _428
REMARK  181  A    between atoms: _428  and  _429
REMARK  182  A    between atoms: _431  and  _433
REMARK  183  A    between atoms: _433  and  _434
REMARK  184  A    between atoms: _436  and  _438
REMARK  185  A    between atoms: _438  and  _439
REMARK  186  A    between atoms: _438  and  _441
REMARK  187  A    between atoms: _441  and  _442
REMARK  188  A    between atoms: _446  and  _447
REMARK  189  A    between atoms: _452  and  _454
REMARK  190  A    between atoms: _454  and  _455
REMARK  191  A    between atoms: _454  and  _457
REMARK  192  A    between atoms: _457  and  _458
REMARK  193  A    between atoms: _463  and  _465
REMARK  194  A    between atoms: _465  and  _466
REMARK  195  A    between atoms: _465  and  _468
REMARK  196  A    between atoms: _468  and  _469
REMARK  197  A    between atoms: _474  and  _475
REMARK  198  A    between atoms: _477  and  _479
REMARK  199  A    between atoms: _479  and  _480
REMARK  200  A    between atoms: _479  and  _482
REMARK  201  A    between atoms: _484  and  _486
REMARK  202  A    between atoms: _486  and  _487
REMARK  203  A    between atoms: _486  and  _489
REMARK  204  A    between atoms: _489  and  _490
REMARK  205  A    between atoms: _490  and  _491
REMARK  206  A    between atoms: _491  and  _492
REMARK  207  A    between atoms: _492  and  _493
REMARK  208  A    between atoms: _497  and  _499
REMARK  209  A    between atoms: _499  and  _500
REMARK  210  A    between atoms: _499  and  _502
REMARK  211  A    between atoms: _502  and  _503
REMARK  212  A    between atoms: _503  and  _504
REMARK  213  A    between atoms: _507  and  _509
REMARK  214  A    between atoms: _509  and  _510
REMARK  215  A    between atoms: _509  and  _512
REMARK  216  A    between atoms: _514  and  _516
REMARK  217  A    between atoms: _516  and  _517
REMARK  218  A    between atoms: _520  and  _521
REMARK  219  A    between atoms: _526  and  _528
REMARK  220  A    between atoms: _528  and  _529
REMARK  221  A    between atoms: _528  and  _531
REMARK  222  A    between atoms: _534  and  _536
REMARK  223  A    between atoms: _536  and  _537
REMARK  224  A    between atoms: _536  and  _539
REMARK  225  A    between atoms: _539  and  _540
REMARK  226  A    between atoms: _543  and  _545
REMARK  227  A    between atoms: _545  and  _546
REMARK  228  A    between atoms: _545  and  _548
REMARK  229  A    between atoms: _548  and  _549
REMARK  230  A    between atoms: _555  and  _557
REMARK  231  A    between atoms: _557  and  _558
REMARK  232  A    between atoms: _557  and  _560
REMARK  233  A    between atoms: _560  and  _561
REMARK  234  A    between atoms: _561  and  _562
REMARK  235  A    between atoms: _564  and  _566
REMARK  236  A    between atoms: _566  and  _567
REMARK  237  A    between atoms: _566  and  _569
REMARK  238  A    between atoms: _569  and  _570
REMARK  239  A    between atoms: _570  and  _571
REMARK  240  A    between atoms: _574  and  _576
REMARK  241  A    between atoms: _576  and  _577
REMARK  242  A    between atoms: _576  and  _579
REMARK  243  A    between atoms: _579  and  _580
REMARK  244  A    between atoms: _580  and  _581
REMARK  245  A    between atoms: _581  and  _582
REMARK  246  A    between atoms: _582  and  _583
REMARK  247  A    between atoms: _587  and  _589
REMARK  248  A    between atoms: _589  and  _590
REMARK  249  A    between atoms: _589  and  _592
REMARK  250  A    between atoms: _592  and  _593
REMARK  251  A    between atoms: _598  and  _599
REMARK  252  A    between atoms: _601  and  _603
REMARK  253  A    between atoms: _603  and  _604
REMARK  254  A    between atoms: _603  and  _606
REMARK  255  A    between atoms: _606  and  _607
REMARK  256  A    between atoms: _610  and  _612
REMARK  257  A    between atoms: _612  and  _613
REMARK  258  A    between atoms: _612  and  _615
REMARK  259  A    between atoms: _615  and  _616
REMARK  260  A    between atoms: _621  and  _623
REMARK  261  A    between atoms: _623  and  _624
REMARK  262  A    between atoms: _623  and  _626
REMARK  263  A    between atoms: _626  and  _627
REMARK  264  A    between atoms: _629  and  _631
REMARK  265  A    between atoms: _631  and  _632
REMARK  266  A    between atoms: _631  and  _634
REMARK  267  A    between atoms: _634  and  _635
REMARK  268  A    between atoms: _635  and  _636
REMARK  269  A    between atoms: _636  and  _637
REMARK  270  A    between atoms: _637  and  _638
REMARK  271  A    between atoms: _642  and  _644
REMARK  272  A    between atoms: _644  and  _645
REMARK  273  A    between atoms: _644  and  _647
REMARK  274  A    between atoms: _647  and  _648
REMARK  275  A    between atoms: _648  and  _649
REMARK  276  A    between atoms: _654  and  _656
REMARK  277  A    between atoms: _656  and  _657
REMARK  278  A    between atoms: _656  and  _659
REMARK  279  A    between atoms: _662  and  _664
REMARK  280  A    between atoms: _664  and  _665
REMARK  281  A    between atoms: _664  and  _667
REMARK  282  A    between atoms: _667  and  _668
REMARK  283  A    between atoms: _674  and  _676
REMARK  284  A    between atoms: _676  and  _677
REMARK  285  A    between atoms: _680  and  _682
REMARK  286  A    between atoms: _682  and  _683
REMARK  287  A    between atoms: _682  and  _685
REMARK  288  A    between atoms: _685  and  _686
REMARK  289  A    between atoms: _689  and  _691
REMARK  290  A    between atoms: _691  and  _692
REMARK  291  A    between atoms: _691  and  _694
REMARK  292  A    between atoms: _694  and  _695
REMARK  293  A    between atoms: _695  and  _696
REMARK  294  A    between atoms: _696  and  _697
REMARK  295  A    between atoms: _706  and  _708
REMARK  296  A    between atoms: _708  and  _709
REMARK  297  A    between atoms: _708  and  _711
REMARK  298  A    between atoms: _711  and  _712
REMARK  299  A    between atoms: _718  and  _720
REMARK  300  A    between atoms: _720  and  _721
REMARK  301  A    between atoms: _720  and  _723
REMARK  302  A    between atoms: _723  and  _724
REMARK  303  A    between atoms: _727  and  _729
REMARK  304  A    between atoms: _729  and  _730
REMARK  305  A    between atoms: _729  and  _732
REMARK  306  A    between atoms: _732  and  _733
REMARK  307  A    between atoms: _738  and  _739
REMARK  308  A    between atoms: _741  and  _743
REMARK  309  A    between atoms: _743  and  _744
REMARK  310  A    between atoms: _747  and  _749
REMARK  311  A    between atoms: _749  and  _750
REMARK  312  A    between atoms: _749  and  _752
REMARK  313  A    between atoms: _752  and  _753
REMARK  314  A    between atoms: _753  and  _754
REMARK  315  A    between atoms: _756  and  _758
REMARK  316  A    between atoms: _758  and  _759
REMARK  317  A    between atoms: _758  and  _761
REMARK  318  A    between atoms: _761  and  _762
REMARK  319  A    between atoms: _767  and  _769
REMARK  320  A    between atoms: _769  and  _770
REMARK  321  A    between atoms: _769  and  _772
REMARK  322  A    between atoms: _772  and  _773
REMARK  323  A    between atoms: _773  and  _774
REMARK  324  A    between atoms: _774  and  _775
REMARK  325  A    between atoms: _784  and  _786
REMARK  326  A    between atoms: _786  and  _787
REMARK  327  A    between atoms: _786  and  _789
REMARK  328  A    between atoms: _789  and  _790
REMARK  329  A    between atoms: _790  and  _791
REMARK  330  A    between atoms: _794  and  _796
REMARK  331  A    between atoms: _796  and  _797
REMARK  332  A    between atoms: _796  and  _799
REMARK  333  A    between atoms: _802  and  _804
REMARK  334  A    between atoms: _804  and  _805
REMARK  335  A    between atoms: _804  and  _807
REMARK  336  A    between atoms: _807  and  _808
REMARK                            x       y       z     vdW  Elec       q    Type
REMARK                         _______ _______ _______ _____ _____    ______ ____
ROOT
ATOM      1  O   HOH     1      11.655  -7.739  -9.197  0.00  0.00    +0.000 OA
ENDROOT
TORSDOF 0
