REMARK  Name = ../refined-set-2016/3dcc/3dcc_pocket.pdb
REMARK  150 active torsions:
REMARK  status: ('A' for Active; 'I' for Inactive)
REMARK    1  A    between atoms: _1  and  _3
REMARK    2  A    between atoms: _3  and  _4
REMARK    3  A    between atoms: _3  and  _6
REMARK    4  A    between atoms: _6  and  _7
REMARK    5  A    between atoms: _17  and  _19
REMARK    6  A    between atoms: _19  and  _20
REMARK    7  A    between atoms: _19  and  _22
REMARK    8  A    between atoms: _22  and  _23
REMARK    9  A    between atoms: _28  and  _29
REMARK   10  A    between atoms: _31  and  _33
REMARK   11  A    between atoms: _33  and  _34
REMARK   12  A    between atoms: _33  and  _36
REMARK   13  A    between atoms: _36  and  _37
REMARK   14  A    between atoms: _40  and  _41
REMARK   15  A    between atoms: _46  and  _48
REMARK   16  A    between atoms: _48  and  _49
REMARK   17  A    between atoms: _48  and  _51
REMARK   18  A    between atoms: _51  and  _52
REMARK   19  A    between atoms: _57  and  _59
REMARK   20  A    between atoms: _59  and  _60
REMARK   21  A    between atoms: _59  and  _62
REMARK   22  A    between atoms: _62  and  _63
REMARK   23  A    between atoms: _68  and  _70
REMARK   24  A    between atoms: _70  and  _71
REMARK   25  A    between atoms: _70  and  _73
REMARK   26  A    between atoms: _73  and  _74
REMARK   27  A    between atoms: _76  and  _78
REMARK   28  A    between atoms: _78  and  _79
REMARK   29  A    between atoms: _78  and  _81
REMARK   30  A    between atoms: _81  and  _82
REMARK   31  A    between atoms: _82  and  _83
REMARK   32  A    between atoms: _88  and  _90
REMARK   33  A    between atoms: _90  and  _91
REMARK   34  A    between atoms: _90  and  _93
REMARK   35  A    between atoms: _93  and  _94
REMARK   36  A    between atoms: _97  and  _99
REMARK   37  A    between atoms: _99  and  _100
REMARK   38  A    between atoms: _99  and  _102
REMARK   39  A    between atoms: _102  and  _103
REMARK   40  A    between atoms: _103  and  _104
REMARK   41  A    between atoms: _109  and  _111
REMARK   42  A    between atoms: _111  and  _112
REMARK   43  A    between atoms: _111  and  _114
REMARK   44  A    between atoms: _114  and  _115
REMARK   45  A    between atoms: _121  and  _123
REMARK   46  A    between atoms: _134  and  _137
REMARK   47  A    between atoms: _137  and  _138
REMARK   48  A    between atoms: _146  and  _147
REMARK   49  A    between atoms: _155  and  _157
REMARK   50  A    between atoms: _157  and  _158
REMARK   51  A    between atoms: _157  and  _160
REMARK   52  A    between atoms: _160  and  _161
REMARK   53  A    between atoms: _161  and  _162
REMARK   54  A    between atoms: _165  and  _167
REMARK   55  A    between atoms: _167  and  _168
REMARK   56  A    between atoms: _167  and  _170
REMARK   57  A    between atoms: _170  and  _171
REMARK   58  A    between atoms: _176  and  _178
REMARK   59  A    between atoms: _178  and  _179
REMARK   60  A    between atoms: _178  and  _181
REMARK   61  A    between atoms: _181  and  _182
REMARK   62  A    between atoms: _182  and  _183
REMARK   63  A    between atoms: _186  and  _188
REMARK   64  A    between atoms: _188  and  _189
REMARK   65  A    between atoms: _188  and  _191
REMARK   66  A    between atoms: _191  and  _192
REMARK   67  A    between atoms: _195  and  _197
REMARK   68  A    between atoms: _197  and  _198
REMARK   69  A    between atoms: _197  and  _200
REMARK   70  A    between atoms: _200  and  _201
REMARK   71  A    between atoms: _202  and  ZN_417
REMARK   72  A    between atoms: _206  and  _208
REMARK   73  A    between atoms: _208  and  _209
REMARK   74  A    between atoms: _208  and  _211
REMARK   75  A    between atoms: _211  and  _212
REMARK   76  A    between atoms: _215  and  _217
REMARK   77  A    between atoms: _217  and  _218
REMARK   78  A    between atoms: _217  and  _220
REMARK   79  A    between atoms: _223  and  _225
REMARK   80  A    between atoms: _225  and  _226
REMARK   81  A    between atoms: _225  and  _228
REMARK   82  A    between atoms: _228  and  _229
REMARK   83  A    between atoms: _234  and  _236
REMARK   84  A    between atoms: _236  and  _237
REMARK   85  A    between atoms: _236  and  _239
REMARK   86  A    between atoms: _239  and  _240
REMARK   87  A    between atoms: _246  and  _248
REMARK   88  A    between atoms: _248  and  _249
REMARK   89  A    between atoms: _248  and  _251
REMARK   90  A    between atoms: _254  and  _256
REMARK   91  A    between atoms: _256  and  _257
REMARK   92  A    between atoms: _256  and  _259
REMARK   93  A    between atoms: _259  and  _260
REMARK   94  A    between atoms: _263  and  _265
REMARK   95  A    between atoms: _265  and  _266
REMARK   96  A    between atoms: _269  and  _271
REMARK   97  A    between atoms: _271  and  _272
REMARK   98  A    between atoms: _271  and  _274
REMARK   99  A    between atoms: _277  and  _279
REMARK  100  A    between atoms: _279  and  _280
REMARK  101  A    between atoms: _279  and  _282
REMARK  102  A    between atoms: _282  and  _283
REMARK  103  A    between atoms: _286  and  _288
REMARK  104  A    between atoms: _288  and  _289
REMARK  105  A    between atoms: _291  and  _293
REMARK  106  A    between atoms: _293  and  _294
REMARK  107  A    between atoms: _293  and  _296
REMARK  108  A    between atoms: _296  and  _297
REMARK  109  A    between atoms: _299  and  _301
REMARK  110  A    between atoms: _301  and  _302
REMARK  111  A    between atoms: _301  and  _304
REMARK  112  A    between atoms: _304  and  _305
REMARK  113  A    between atoms: _308  and  _310
REMARK  114  A    between atoms: _310  and  _311
REMARK  115  A    between atoms: _310  and  _313
REMARK  116  A    between atoms: _313  and  _314
REMARK  117  A    between atoms: _317  and  _319
REMARK  118  A    between atoms: _319  and  _320
REMARK  119  A    between atoms: _319  and  _322
REMARK  120  A    between atoms: _322  and  _323
REMARK  121  A    between atoms: _327  and  _328
REMARK  122  A    between atoms: _334  and  _335
REMARK  123  A    between atoms: _340  and  _342
REMARK  124  A    between atoms: _342  and  _343
REMARK  125  A    between atoms: _342  and  _345
REMARK  126  A    between atoms: _345  and  _346
REMARK  127  A    between atoms: _349  and  _351
REMARK  128  A    between atoms: _351  and  _352
REMARK  129  A    between atoms: _351  and  _354
REMARK  130  A    between atoms: _354  and  _355
REMARK  131  A    between atoms: _358  and  _360
REMARK  132  A    between atoms: _360  and  _361
REMARK  133  A    between atoms: _360  and  _363
REMARK  134  A    between atoms: _365  and  _367
REMARK  135  A    between atoms: _367  and  _368
REMARK  136  A    between atoms: _367  and  _370
REMARK  137  A    between atoms: _373  and  _375
REMARK  138  A    between atoms: _375  and  _376
REMARK  139  A    between atoms: _375  and  _378
REMARK  140  A    between atoms: _378  and  _379
REMARK  141  A    between atoms: _389  and  _391
REMARK  142  A    between atoms: _391  and  _392
REMARK  143  A    between atoms: _391  and  _394
REMARK  144  A    between atoms: _394  and  _395
REMARK  145  A    between atoms: _400  and  _402
REMARK  146  A    between atoms: _402  and  _403
REMARK  147  A    between atoms: _402  and  _405
REMARK  148  A    between atoms: _405  and  _406
REMARK  149  A    between atoms: _406  and  _407
REMARK  150  A    between atoms: _407  and  _408
REMARK                            x       y       z     vdW  Elec       q    Type
REMARK                         _______ _______ _______ _____ _____    ______ ____
ROOT
ATOM      1  CG  TRP A   1       5.907  -0.272  12.259  0.00  0.00    -0.002 A 
ATOM      2  CD2 TRP A   1       4.527  -0.653  12.151  0.00  0.00    +0.013 A 
ATOM      3  CE3 TRP A   1       3.845  -1.860  12.361  0.00  0.00    +0.001 A 
ATOM      4  CZ3 TRP A   1       2.468  -1.857  12.146  0.00  0.00    +0.000 A 
ATOM      5  CH2 TRP A   1       1.771  -0.712  11.741  0.00  0.00    +0.001 A 
ATOM      6  CZ2 TRP A   1       2.417   0.473  11.531  0.00  0.00    +0.017 A 
ATOM      7  CE2 TRP A   1       3.798   0.481  11.742  0.00  0.00    +0.056 A 
ATOM      8  NE1 TRP A   1       4.696   1.513  11.613  0.00  0.00    -0.352 N 
ATOM      9  HE1 TRP A   1       4.464   2.486  11.326  0.00  0.00    +0.166 HD
ATOM     10  CD1 TRP A   1       5.950   1.048  11.925  0.00  0.00    +0.068 A 
ENDROOT
BRANCH   1  11
ATOM     11  CB  TRP A   1       7.066  -1.139  12.663  0.00  0.00    +0.053 C 
BRANCH  11  12
ATOM     12  CA  TRP A   1       7.735  -1.840  11.481  0.00  0.00    +0.137 C 
BRANCH  12  13
ATOM     13  N   TRP A   1       8.444  -0.890  10.628  0.00  0.00    -0.239 NA
ATOM     14  H   TRP A   1       8.303   0.129  10.780  0.00  0.00    +0.142 HD
ENDBRANCH  12  13
BRANCH  12  15
ATOM     15  C   TRP A   1       6.718  -2.604  10.654  0.00  0.00    +0.224 C 
ATOM     16  O   TRP A   1       6.260  -2.134   9.606  0.00  0.00    -0.287 OA
ENDBRANCH  12  15
ENDBRANCH  11  12
ENDBRANCH   1  11
TORSDOF 4
REMARK  Name = ../refined-set-2016/3dcc/3dcc_pocket.pdb
REMARK  150 active torsions:
REMARK  status: ('A' for Active; 'I' for Inactive)
REMARK    1  A    between atoms: _1  and  _3
REMARK    2  A    between atoms: _3  and  _4
REMARK    3  A    between atoms: _3  and  _6
REMARK    4  A    between atoms: _6  and  _7
REMARK    5  A    between atoms: _17  and  _19
REMARK    6  A    between atoms: _19  and  _20
REMARK    7  A    between atoms: _19  and  _22
REMARK    8  A    between atoms: _22  and  _23
REMARK    9  A    between atoms: _28  and  _29
REMARK   10  A    between atoms: _31  and  _33
REMARK   11  A    between atoms: _33  and  _34
REMARK   12  A    between atoms: _33  and  _36
REMARK   13  A    between atoms: _36  and  _37
REMARK   14  A    between atoms: _40  and  _41
REMARK   15  A    between atoms: _46  and  _48
REMARK   16  A    between atoms: _48  and  _49
REMARK   17  A    between atoms: _48  and  _51
REMARK   18  A    between atoms: _51  and  _52
REMARK   19  A    between atoms: _57  and  _59
REMARK   20  A    between atoms: _59  and  _60
REMARK   21  A    between atoms: _59  and  _62
REMARK   22  A    between atoms: _62  and  _63
REMARK   23  A    between atoms: _68  and  _70
REMARK   24  A    between atoms: _70  and  _71
REMARK   25  A    between atoms: _70  and  _73
REMARK   26  A    between atoms: _73  and  _74
REMARK   27  A    between atoms: _76  and  _78
REMARK   28  A    between atoms: _78  and  _79
REMARK   29  A    between atoms: _78  and  _81
REMARK   30  A    between atoms: _81  and  _82
REMARK   31  A    between atoms: _82  and  _83
REMARK   32  A    between atoms: _88  and  _90
REMARK   33  A    between atoms: _90  and  _91
REMARK   34  A    between atoms: _90  and  _93
REMARK   35  A    between atoms: _93  and  _94
REMARK   36  A    between atoms: _97  and  _99
REMARK   37  A    between atoms: _99  and  _100
REMARK   38  A    between atoms: _99  and  _102
REMARK   39  A    between atoms: _102  and  _103
REMARK   40  A    between atoms: _103  and  _104
REMARK   41  A    between atoms: _109  and  _111
REMARK   42  A    between atoms: _111  and  _112
REMARK   43  A    between atoms: _111  and  _114
REMARK   44  A    between atoms: _114  and  _115
REMARK   45  A    between atoms: _121  and  _123
REMARK   46  A    between atoms: _134  and  _137
REMARK   47  A    between atoms: _137  and  _138
REMARK   48  A    between atoms: _146  and  _147
REMARK   49  A    between atoms: _155  and  _157
REMARK   50  A    between atoms: _157  and  _158
REMARK   51  A    between atoms: _157  and  _160
REMARK   52  A    between atoms: _160  and  _161
REMARK   53  A    between atoms: _161  and  _162
REMARK   54  A    between atoms: _165  and  _167
REMARK   55  A    between atoms: _167  and  _168
REMARK   56  A    between atoms: _167  and  _170
REMARK   57  A    between atoms: _170  and  _171
REMARK   58  A    between atoms: _176  and  _178
REMARK   59  A    between atoms: _178  and  _179
REMARK   60  A    between atoms: _178  and  _181
REMARK   61  A    between atoms: _181  and  _182
REMARK   62  A    between atoms: _182  and  _183
REMARK   63  A    between atoms: _186  and  _188
REMARK   64  A    between atoms: _188  and  _189
REMARK   65  A    between atoms: _188  and  _191
REMARK   66  A    between atoms: _191  and  _192
REMARK   67  A    between atoms: _195  and  _197
REMARK   68  A    between atoms: _197  and  _198
REMARK   69  A    between atoms: _197  and  _200
REMARK   70  A    between atoms: _200  and  _201
REMARK   71  A    between atoms: _202  and  ZN_417
REMARK   72  A    between atoms: _206  and  _208
REMARK   73  A    between atoms: _208  and  _209
REMARK   74  A    between atoms: _208  and  _211
REMARK   75  A    between atoms: _211  and  _212
REMARK   76  A    between atoms: _215  and  _217
REMARK   77  A    between atoms: _217  and  _218
REMARK   78  A    between atoms: _217  and  _220
REMARK   79  A    between atoms: _223  and  _225
REMARK   80  A    between atoms: _225  and  _226
REMARK   81  A    between atoms: _225  and  _228
REMARK   82  A    between atoms: _228  and  _229
REMARK   83  A    between atoms: _234  and  _236
REMARK   84  A    between atoms: _236  and  _237
REMARK   85  A    between atoms: _236  and  _239
REMARK   86  A    between atoms: _239  and  _240
REMARK   87  A    between atoms: _246  and  _248
REMARK   88  A    between atoms: _248  and  _249
REMARK   89  A    between atoms: _248  and  _251
REMARK   90  A    between atoms: _254  and  _256
REMARK   91  A    between atoms: _256  and  _257
REMARK   92  A    between atoms: _256  and  _259
REMARK   93  A    between atoms: _259  and  _260
REMARK   94  A    between atoms: _263  and  _265
REMARK   95  A    between atoms: _265  and  _266
REMARK   96  A    between atoms: _269  and  _271
REMARK   97  A    between atoms: _271  and  _272
REMARK   98  A    between atoms: _271  and  _274
REMARK   99  A    between atoms: _277  and  _279
REMARK  100  A    between atoms: _279  and  _280
REMARK  101  A    between atoms: _279  and  _282
REMARK  102  A    between atoms: _282  and  _283
REMARK  103  A    between atoms: _286  and  _288
REMARK  104  A    between atoms: _288  and  _289
REMARK  105  A    between atoms: _291  and  _293
REMARK  106  A    between atoms: _293  and  _294
REMARK  107  A    between atoms: _293  and  _296
REMARK  108  A    between atoms: _296  and  _297
REMARK  109  A    between atoms: _299  and  _301
REMARK  110  A    between atoms: _301  and  _302
REMARK  111  A    between atoms: _301  and  _304
REMARK  112  A    between atoms: _304  and  _305
REMARK  113  A    between atoms: _308  and  _310
REMARK  114  A    between atoms: _310  and  _311
REMARK  115  A    between atoms: _310  and  _313
REMARK  116  A    between atoms: _313  and  _314
REMARK  117  A    between atoms: _317  and  _319
REMARK  118  A    between atoms: _319  and  _320
REMARK  119  A    between atoms: _319  and  _322
REMARK  120  A    between atoms: _322  and  _323
REMARK  121  A    between atoms: _327  and  _328
REMARK  122  A    between atoms: _334  and  _335
REMARK  123  A    between atoms: _340  and  _342
REMARK  124  A    between atoms: _342  and  _343
REMARK  125  A    between atoms: _342  and  _345
REMARK  126  A    between atoms: _345  and  _346
REMARK  127  A    between atoms: _349  and  _351
REMARK  128  A    between atoms: _351  and  _352
REMARK  129  A    between atoms: _351  and  _354
REMARK  130  A    between atoms: _354  and  _355
REMARK  131  A    between atoms: _358  and  _360
REMARK  132  A    between atoms: _360  and  _361
REMARK  133  A    between atoms: _360  and  _363
REMARK  134  A    between atoms: _365  and  _367
REMARK  135  A    between atoms: _367  and  _368
REMARK  136  A    between atoms: _367  and  _370
REMARK  137  A    between atoms: _373  and  _375
REMARK  138  A    between atoms: _375  and  _376
REMARK  139  A    between atoms: _375  and  _378
REMARK  140  A    between atoms: _378  and  _379
REMARK  141  A    between atoms: _389  and  _391
REMARK  142  A    between atoms: _391  and  _392
REMARK  143  A    between atoms: _391  and  _394
REMARK  144  A    between atoms: _394  and  _395
REMARK  145  A    between atoms: _400  and  _402
REMARK  146  A    between atoms: _402  and  _403
REMARK  147  A    between atoms: _402  and  _405
REMARK  148  A    between atoms: _405  and  _406
REMARK  149  A    between atoms: _406  and  _407
REMARK  150  A    between atoms: _407  and  _408
REMARK                            x       y       z     vdW  Elec       q    Type
REMARK                         _______ _______ _______ _____ _____    ______ ____
ROOT
ATOM      1  CG  TYR A   1       1.896  -7.338  11.962  0.00  0.00    -0.020 A 
ATOM      2  CD2 TYR A   1       1.528  -7.357  13.295  0.00  0.00    -0.001 A 
ATOM      3  CE2 TYR A   1       0.683  -6.346  13.774  0.00  0.00    +0.036 A 
ATOM      4  CZ  TYR A   1       0.225  -5.359  12.937  0.00  0.00    +0.134 A 
ATOM      5  CE1 TYR A   1       0.586  -5.331  11.601  0.00  0.00    +0.036 A 
ATOM      6  CD1 TYR A   1       1.419  -6.329  11.130  0.00  0.00    -0.001 A 
ENDROOT
BRANCH   4   7
ATOM      7  OH  TYR A   1      -0.609  -4.361  13.409  0.00  0.00    -0.506 OA
ATOM      8  HH  TYR A   1      -1.438  -4.767  13.766  0.00  0.00    +0.292 HD
ENDBRANCH   4   7
BRANCH   1   9
ATOM      9  CB  TYR A   1       2.809  -8.412  11.396  0.00  0.00    +0.051 C 
BRANCH   9  10
ATOM     10  CA  TYR A   1       4.284  -8.074  11.600  0.00  0.00    +0.137 C 
BRANCH  10  11
ATOM     11  N   TYR A   1       4.645  -6.905  10.783  0.00  0.00    -0.239 NA
ATOM     12  H   TYR A   1       4.618  -6.944   9.744  0.00  0.00    +0.142 HD
ENDBRANCH  10  11
BRANCH  10  13
ATOM     13  C   TYR A   1       5.156  -9.288  11.314  0.00  0.00    +0.224 C 
ATOM     14  O   TYR A   1       4.867 -10.401  11.772  0.00  0.00    -0.287 OA
ENDBRANCH  10  13
ENDBRANCH   9  10
ENDBRANCH   1   9
TORSDOF 5
REMARK  Name = ../refined-set-2016/3dcc/3dcc_pocket.pdb
REMARK  150 active torsions:
REMARK  status: ('A' for Active; 'I' for Inactive)
REMARK    1  A    between atoms: _1  and  _3
REMARK    2  A    between atoms: _3  and  _4
REMARK    3  A    between atoms: _3  and  _6
REMARK    4  A    between atoms: _6  and  _7
REMARK    5  A    between atoms: _17  and  _19
REMARK    6  A    between atoms: _19  and  _20
REMARK    7  A    between atoms: _19  and  _22
REMARK    8  A    between atoms: _22  and  _23
REMARK    9  A    between atoms: _28  and  _29
REMARK   10  A    between atoms: _31  and  _33
REMARK   11  A    between atoms: _33  and  _34
REMARK   12  A    between atoms: _33  and  _36
REMARK   13  A    between atoms: _36  and  _37
REMARK   14  A    between atoms: _40  and  _41
REMARK   15  A    between atoms: _46  and  _48
REMARK   16  A    between atoms: _48  and  _49
REMARK   17  A    between atoms: _48  and  _51
REMARK   18  A    between atoms: _51  and  _52
REMARK   19  A    between atoms: _57  and  _59
REMARK   20  A    between atoms: _59  and  _60
REMARK   21  A    between atoms: _59  and  _62
REMARK   22  A    between atoms: _62  and  _63
REMARK   23  A    between atoms: _68  and  _70
REMARK   24  A    between atoms: _70  and  _71
REMARK   25  A    between atoms: _70  and  _73
REMARK   26  A    between atoms: _73  and  _74
REMARK   27  A    between atoms: _76  and  _78
REMARK   28  A    between atoms: _78  and  _79
REMARK   29  A    between atoms: _78  and  _81
REMARK   30  A    between atoms: _81  and  _82
REMARK   31  A    between atoms: _82  and  _83
REMARK   32  A    between atoms: _88  and  _90
REMARK   33  A    between atoms: _90  and  _91
REMARK   34  A    between atoms: _90  and  _93
REMARK   35  A    between atoms: _93  and  _94
REMARK   36  A    between atoms: _97  and  _99
REMARK   37  A    between atoms: _99  and  _100
REMARK   38  A    between atoms: _99  and  _102
REMARK   39  A    between atoms: _102  and  _103
REMARK   40  A    between atoms: _103  and  _104
REMARK   41  A    between atoms: _109  and  _111
REMARK   42  A    between atoms: _111  and  _112
REMARK   43  A    between atoms: _111  and  _114
REMARK   44  A    between atoms: _114  and  _115
REMARK   45  A    between atoms: _121  and  _123
REMARK   46  A    between atoms: _134  and  _137
REMARK   47  A    between atoms: _137  and  _138
REMARK   48  A    between atoms: _146  and  _147
REMARK   49  A    between atoms: _155  and  _157
REMARK   50  A    between atoms: _157  and  _158
REMARK   51  A    between atoms: _157  and  _160
REMARK   52  A    between atoms: _160  and  _161
REMARK   53  A    between atoms: _161  and  _162
REMARK   54  A    between atoms: _165  and  _167
REMARK   55  A    between atoms: _167  and  _168
REMARK   56  A    between atoms: _167  and  _170
REMARK   57  A    between atoms: _170  and  _171
REMARK   58  A    between atoms: _176  and  _178
REMARK   59  A    between atoms: _178  and  _179
REMARK   60  A    between atoms: _178  and  _181
REMARK   61  A    between atoms: _181  and  _182
REMARK   62  A    between atoms: _182  and  _183
REMARK   63  A    between atoms: _186  and  _188
REMARK   64  A    between atoms: _188  and  _189
REMARK   65  A    between atoms: _188  and  _191
REMARK   66  A    between atoms: _191  and  _192
REMARK   67  A    between atoms: _195  and  _197
REMARK   68  A    between atoms: _197  and  _198
REMARK   69  A    between atoms: _197  and  _200
REMARK   70  A    between atoms: _200  and  _201
REMARK   71  A    between atoms: _202  and  ZN_417
REMARK   72  A    between atoms: _206  and  _208
REMARK   73  A    between atoms: _208  and  _209
REMARK   74  A    between atoms: _208  and  _211
REMARK   75  A    between atoms: _211  and  _212
REMARK   76  A    between atoms: _215  and  _217
REMARK   77  A    between atoms: _217  and  _218
REMARK   78  A    between atoms: _217  and  _220
REMARK   79  A    between atoms: _223  and  _225
REMARK   80  A    between atoms: _225  and  _226
REMARK   81  A    between atoms: _225  and  _228
REMARK   82  A    between atoms: _228  and  _229
REMARK   83  A    between atoms: _234  and  _236
REMARK   84  A    between atoms: _236  and  _237
REMARK   85  A    between atoms: _236  and  _239
REMARK   86  A    between atoms: _239  and  _240
REMARK   87  A    between atoms: _246  and  _248
REMARK   88  A    between atoms: _248  and  _249
REMARK   89  A    between atoms: _248  and  _251
REMARK   90  A    between atoms: _254  and  _256
REMARK   91  A    between atoms: _256  and  _257
REMARK   92  A    between atoms: _256  and  _259
REMARK   93  A    between atoms: _259  and  _260
REMARK   94  A    between atoms: _263  and  _265
REMARK   95  A    between atoms: _265  and  _266
REMARK   96  A    between atoms: _269  and  _271
REMARK   97  A    between atoms: _271  and  _272
REMARK   98  A    between atoms: _271  and  _274
REMARK   99  A    between atoms: _277  and  _279
REMARK  100  A    between atoms: _279  and  _280
REMARK  101  A    between atoms: _279  and  _282
REMARK  102  A    between atoms: _282  and  _283
REMARK  103  A    between atoms: _286  and  _288
REMARK  104  A    between atoms: _288  and  _289
REMARK  105  A    between atoms: _291  and  _293
REMARK  106  A    between atoms: _293  and  _294
REMARK  107  A    between atoms: _293  and  _296
REMARK  108  A    between atoms: _296  and  _297
REMARK  109  A    between atoms: _299  and  _301
REMARK  110  A    between atoms: _301  and  _302
REMARK  111  A    between atoms: _301  and  _304
REMARK  112  A    between atoms: _304  and  _305
REMARK  113  A    between atoms: _308  and  _310
REMARK  114  A    between atoms: _310  and  _311
REMARK  115  A    between atoms: _310  and  _313
REMARK  116  A    between atoms: _313  and  _314
REMARK  117  A    between atoms: _317  and  _319
REMARK  118  A    between atoms: _319  and  _320
REMARK  119  A    between atoms: _319  and  _322
REMARK  120  A    between atoms: _322  and  _323
REMARK  121  A    between atoms: _327  and  _328
REMARK  122  A    between atoms: _334  and  _335
REMARK  123  A    between atoms: _340  and  _342
REMARK  124  A    between atoms: _342  and  _343
REMARK  125  A    between atoms: _342  and  _345
REMARK  126  A    between atoms: _345  and  _346
REMARK  127  A    between atoms: _349  and  _351
REMARK  128  A    between atoms: _351  and  _352
REMARK  129  A    between atoms: _351  and  _354
REMARK  130  A    between atoms: _354  and  _355
REMARK  131  A    between atoms: _358  and  _360
REMARK  132  A    between atoms: _360  and  _361
REMARK  133  A    between atoms: _360  and  _363
REMARK  134  A    between atoms: _365  and  _367
REMARK  135  A    between atoms: _367  and  _368
REMARK  136  A    between atoms: _367  and  _370
REMARK  137  A    between atoms: _373  and  _375
REMARK  138  A    between atoms: _375  and  _376
REMARK  139  A    between atoms: _375  and  _378
REMARK  140  A    between atoms: _378  and  _379
REMARK  141  A    between atoms: _389  and  _391
REMARK  142  A    between atoms: _391  and  _392
REMARK  143  A    between atoms: _391  and  _394
REMARK  144  A    between atoms: _394  and  _395
REMARK  145  A    between atoms: _400  and  _402
REMARK  146  A    between atoms: _402  and  _403
REMARK  147  A    between atoms: _402  and  _405
REMARK  148  A    between atoms: _405  and  _406
REMARK  149  A    between atoms: _406  and  _407
REMARK  150  A    between atoms: _407  and  _408
REMARK                            x       y       z     vdW  Elec       q    Type
REMARK                         _______ _______ _______ _____ _____    ______ ____
ROOT
ATOM      1  C   SER A   1      -2.396  -3.483  23.421  0.00  0.00    +0.244 C 
ATOM      2  N   PRO A   2      -3.028  -4.626  23.161  0.00  0.00    -0.273 N 
ATOM      3  CA  PRO A   2      -4.192  -5.133  23.872  0.00  0.00    +0.140 C 
ATOM      4  CB  PRO A   2      -4.753  -6.126  22.841  0.00  0.00    +0.030 C 
ATOM      5  CG  PRO A   2      -3.478  -6.735  22.292  0.00  0.00    +0.024 C 
ATOM      6  CD  PRO A   2      -2.591  -5.534  22.064  0.00  0.00    +0.094 C 
ATOM      7  O   SER A   1      -1.401  -3.123  22.789  0.00  0.00    -0.273 OA
ENDROOT
BRANCH   3   8
ATOM      8  C   PRO A   2      -3.807  -5.863  25.153  0.00  0.00    +0.227 C 
ATOM      9  O   PRO A   2      -2.645  -5.917  25.533  0.00  0.00    -0.286 OA
ENDBRANCH   3   8
BRANCH   1  10
ATOM     10  CA  SER A   1      -2.926  -2.541  24.503  0.00  0.00    +0.175 C 
BRANCH  10  11
ATOM     11  N   SER A   1      -1.869  -1.652  24.991  0.00  0.00    -0.236 NA
ATOM     12  H   SER A   1      -1.358  -1.073  24.294  0.00  0.00    +0.142 HD
ENDBRANCH  10  11
BRANCH  10  13
ATOM     13  CB  SER A   1      -4.099  -1.750  23.878  0.00  0.00    +0.163 C 
BRANCH  13  14
ATOM     14  OG  SER A   1      -4.759  -1.037  24.923  0.00  0.00    -0.380 OA
ATOM     15  H   SER A   1      -5.100  -1.679  25.595  0.00  0.00    +0.211 HD
ENDBRANCH  13  14
ENDBRANCH  10  13
ENDBRANCH   1  10
TORSDOF 5
REMARK  Name = ../refined-set-2016/3dcc/3dcc_pocket.pdb
REMARK  150 active torsions:
REMARK  status: ('A' for Active; 'I' for Inactive)
REMARK    1  A    between atoms: _1  and  _3
REMARK    2  A    between atoms: _3  and  _4
REMARK    3  A    between atoms: _3  and  _6
REMARK    4  A    between atoms: _6  and  _7
REMARK    5  A    between atoms: _17  and  _19
REMARK    6  A    between atoms: _19  and  _20
REMARK    7  A    between atoms: _19  and  _22
REMARK    8  A    between atoms: _22  and  _23
REMARK    9  A    between atoms: _28  and  _29
REMARK   10  A    between atoms: _31  and  _33
REMARK   11  A    between atoms: _33  and  _34
REMARK   12  A    between atoms: _33  and  _36
REMARK   13  A    between atoms: _36  and  _37
REMARK   14  A    between atoms: _40  and  _41
REMARK   15  A    between atoms: _46  and  _48
REMARK   16  A    between atoms: _48  and  _49
REMARK   17  A    between atoms: _48  and  _51
REMARK   18  A    between atoms: _51  and  _52
REMARK   19  A    between atoms: _57  and  _59
REMARK   20  A    between atoms: _59  and  _60
REMARK   21  A    between atoms: _59  and  _62
REMARK   22  A    between atoms: _62  and  _63
REMARK   23  A    between atoms: _68  and  _70
REMARK   24  A    between atoms: _70  and  _71
REMARK   25  A    between atoms: _70  and  _73
REMARK   26  A    between atoms: _73  and  _74
REMARK   27  A    between atoms: _76  and  _78
REMARK   28  A    between atoms: _78  and  _79
REMARK   29  A    between atoms: _78  and  _81
REMARK   30  A    between atoms: _81  and  _82
REMARK   31  A    between atoms: _82  and  _83
REMARK   32  A    between atoms: _88  and  _90
REMARK   33  A    between atoms: _90  and  _91
REMARK   34  A    between atoms: _90  and  _93
REMARK   35  A    between atoms: _93  and  _94
REMARK   36  A    between atoms: _97  and  _99
REMARK   37  A    between atoms: _99  and  _100
REMARK   38  A    between atoms: _99  and  _102
REMARK   39  A    between atoms: _102  and  _103
REMARK   40  A    between atoms: _103  and  _104
REMARK   41  A    between atoms: _109  and  _111
REMARK   42  A    between atoms: _111  and  _112
REMARK   43  A    between atoms: _111  and  _114
REMARK   44  A    between atoms: _114  and  _115
REMARK   45  A    between atoms: _121  and  _123
REMARK   46  A    between atoms: _134  and  _137
REMARK   47  A    between atoms: _137  and  _138
REMARK   48  A    between atoms: _146  and  _147
REMARK   49  A    between atoms: _155  and  _157
REMARK   50  A    between atoms: _157  and  _158
REMARK   51  A    between atoms: _157  and  _160
REMARK   52  A    between atoms: _160  and  _161
REMARK   53  A    between atoms: _161  and  _162
REMARK   54  A    between atoms: _165  and  _167
REMARK   55  A    between atoms: _167  and  _168
REMARK   56  A    between atoms: _167  and  _170
REMARK   57  A    between atoms: _170  and  _171
REMARK   58  A    between atoms: _176  and  _178
REMARK   59  A    between atoms: _178  and  _179
REMARK   60  A    between atoms: _178  and  _181
REMARK   61  A    between atoms: _181  and  _182
REMARK   62  A    between atoms: _182  and  _183
REMARK   63  A    between atoms: _186  and  _188
REMARK   64  A    between atoms: _188  and  _189
REMARK   65  A    between atoms: _188  and  _191
REMARK   66  A    between atoms: _191  and  _192
REMARK   67  A    between atoms: _195  and  _197
REMARK   68  A    between atoms: _197  and  _198
REMARK   69  A    between atoms: _197  and  _200
REMARK   70  A    between atoms: _200  and  _201
REMARK   71  A    between atoms: _202  and  ZN_417
REMARK   72  A    between atoms: _206  and  _208
REMARK   73  A    between atoms: _208  and  _209
REMARK   74  A    between atoms: _208  and  _211
REMARK   75  A    between atoms: _211  and  _212
REMARK   76  A    between atoms: _215  and  _217
REMARK   77  A    between atoms: _217  and  _218
REMARK   78  A    between atoms: _217  and  _220
REMARK   79  A    between atoms: _223  and  _225
REMARK   80  A    between atoms: _225  and  _226
REMARK   81  A    between atoms: _225  and  _228
REMARK   82  A    between atoms: _228  and  _229
REMARK   83  A    between atoms: _234  and  _236
REMARK   84  A    between atoms: _236  and  _237
REMARK   85  A    between atoms: _236  and  _239
REMARK   86  A    between atoms: _239  and  _240
REMARK   87  A    between atoms: _246  and  _248
REMARK   88  A    between atoms: _248  and  _249
REMARK   89  A    between atoms: _248  and  _251
REMARK   90  A    between atoms: _254  and  _256
REMARK   91  A    between atoms: _256  and  _257
REMARK   92  A    between atoms: _256  and  _259
REMARK   93  A    between atoms: _259  and  _260
REMARK   94  A    between atoms: _263  and  _265
REMARK   95  A    between atoms: _265  and  _266
REMARK   96  A    between atoms: _269  and  _271
REMARK   97  A    between atoms: _271  and  _272
REMARK   98  A    between atoms: _271  and  _274
REMARK   99  A    between atoms: _277  and  _279
REMARK  100  A    between atoms: _279  and  _280
REMARK  101  A    between atoms: _279  and  _282
REMARK  102  A    between atoms: _282  and  _283
REMARK  103  A    between atoms: _286  and  _288
REMARK  104  A    between atoms: _288  and  _289
REMARK  105  A    between atoms: _291  and  _293
REMARK  106  A    between atoms: _293  and  _294
REMARK  107  A    between atoms: _293  and  _296
REMARK  108  A    between atoms: _296  and  _297
REMARK  109  A    between atoms: _299  and  _301
REMARK  110  A    between atoms: _301  and  _302
REMARK  111  A    between atoms: _301  and  _304
REMARK  112  A    between atoms: _304  and  _305
REMARK  113  A    between atoms: _308  and  _310
REMARK  114  A    between atoms: _310  and  _311
REMARK  115  A    between atoms: _310  and  _313
REMARK  116  A    between atoms: _313  and  _314
REMARK  117  A    between atoms: _317  and  _319
REMARK  118  A    between atoms: _319  and  _320
REMARK  119  A    between atoms: _319  and  _322
REMARK  120  A    between atoms: _322  and  _323
REMARK  121  A    between atoms: _327  and  _328
REMARK  122  A    between atoms: _334  and  _335
REMARK  123  A    between atoms: _340  and  _342
REMARK  124  A    between atoms: _342  and  _343
REMARK  125  A    between atoms: _342  and  _345
REMARK  126  A    between atoms: _345  and  _346
REMARK  127  A    between atoms: _349  and  _351
REMARK  128  A    between atoms: _351  and  _352
REMARK  129  A    between atoms: _351  and  _354
REMARK  130  A    between atoms: _354  and  _355
REMARK  131  A    between atoms: _358  and  _360
REMARK  132  A    between atoms: _360  and  _361
REMARK  133  A    between atoms: _360  and  _363
REMARK  134  A    between atoms: _365  and  _367
REMARK  135  A    between atoms: _367  and  _368
REMARK  136  A    between atoms: _367  and  _370
REMARK  137  A    between atoms: _373  and  _375
REMARK  138  A    between atoms: _375  and  _376
REMARK  139  A    between atoms: _375  and  _378
REMARK  140  A    between atoms: _378  and  _379
REMARK  141  A    between atoms: _389  and  _391
REMARK  142  A    between atoms: _391  and  _392
REMARK  143  A    between atoms: _391  and  _394
REMARK  144  A    between atoms: _394  and  _395
REMARK  145  A    between atoms: _400  and  _402
REMARK  146  A    between atoms: _402  and  _403
REMARK  147  A    between atoms: _402  and  _405
REMARK  148  A    between atoms: _405  and  _406
REMARK  149  A    between atoms: _406  and  _407
REMARK  150  A    between atoms: _407  and  _408
REMARK                            x       y       z     vdW  Elec       q    Type
REMARK                         _______ _______ _______ _____ _____    ______ ____
ROOT
ATOM      1  CB  ASN A   1      -2.749   1.687   5.224  0.00  0.00    +0.110 C 
ENDROOT
BRANCH   1   2
ATOM      2  CG  ASN A   1      -2.946   0.892   6.493  0.00  0.00    +0.221 C 
ATOM      3  ND2 ASN A   1      -3.389   1.550   7.565  0.00  0.00    -0.329 N 
ATOM      4 HD21 ASN A   1      -3.543   1.043   8.460  0.00  0.00    +0.145 HD
ATOM      5 HD22 ASN A   1      -3.580   2.571   7.506  0.00  0.00    +0.145 HD
ATOM      6  OD1 ASN A   1      -2.705  -0.313   6.509  0.00  0.00    -0.275 OA
ENDBRANCH   1   2
BRANCH   1   7
ATOM      7  CA  ASN A   1      -2.438   0.847   3.987  0.00  0.00    +0.142 C 
BRANCH   7   8
ATOM      8  N   ASN A   1      -3.554  -0.027   3.601  0.00  0.00    -0.239 NA
ATOM      9  H   ASN A   1      -4.092  -0.559   4.315  0.00  0.00    +0.142 HD
ENDBRANCH   7   8
BRANCH   7  10
ATOM     10  C   ASN A   1      -1.165   0.034   4.206  0.00  0.00    +0.225 C 
ATOM     11  O   ASN A   1      -0.193   0.604   4.700  0.00  0.00    -0.287 OA
ENDBRANCH   7  10
ENDBRANCH   1   7
TORSDOF 4
REMARK  Name = ../refined-set-2016/3dcc/3dcc_pocket.pdb
REMARK  150 active torsions:
REMARK  status: ('A' for Active; 'I' for Inactive)
REMARK    1  A    between atoms: _1  and  _3
REMARK    2  A    between atoms: _3  and  _4
REMARK    3  A    between atoms: _3  and  _6
REMARK    4  A    between atoms: _6  and  _7
REMARK    5  A    between atoms: _17  and  _19
REMARK    6  A    between atoms: _19  and  _20
REMARK    7  A    between atoms: _19  and  _22
REMARK    8  A    between atoms: _22  and  _23
REMARK    9  A    between atoms: _28  and  _29
REMARK   10  A    between atoms: _31  and  _33
REMARK   11  A    between atoms: _33  and  _34
REMARK   12  A    between atoms: _33  and  _36
REMARK   13  A    between atoms: _36  and  _37
REMARK   14  A    between atoms: _40  and  _41
REMARK   15  A    between atoms: _46  and  _48
REMARK   16  A    between atoms: _48  and  _49
REMARK   17  A    between atoms: _48  and  _51
REMARK   18  A    between atoms: _51  and  _52
REMARK   19  A    between atoms: _57  and  _59
REMARK   20  A    between atoms: _59  and  _60
REMARK   21  A    between atoms: _59  and  _62
REMARK   22  A    between atoms: _62  and  _63
REMARK   23  A    between atoms: _68  and  _70
REMARK   24  A    between atoms: _70  and  _71
REMARK   25  A    between atoms: _70  and  _73
REMARK   26  A    between atoms: _73  and  _74
REMARK   27  A    between atoms: _76  and  _78
REMARK   28  A    between atoms: _78  and  _79
REMARK   29  A    between atoms: _78  and  _81
REMARK   30  A    between atoms: _81  and  _82
REMARK   31  A    between atoms: _82  and  _83
REMARK   32  A    between atoms: _88  and  _90
REMARK   33  A    between atoms: _90  and  _91
REMARK   34  A    between atoms: _90  and  _93
REMARK   35  A    between atoms: _93  and  _94
REMARK   36  A    between atoms: _97  and  _99
REMARK   37  A    between atoms: _99  and  _100
REMARK   38  A    between atoms: _99  and  _102
REMARK   39  A    between atoms: _102  and  _103
REMARK   40  A    between atoms: _103  and  _104
REMARK   41  A    between atoms: _109  and  _111
REMARK   42  A    between atoms: _111  and  _112
REMARK   43  A    between atoms: _111  and  _114
REMARK   44  A    between atoms: _114  and  _115
REMARK   45  A    between atoms: _121  and  _123
REMARK   46  A    between atoms: _134  and  _137
REMARK   47  A    between atoms: _137  and  _138
REMARK   48  A    between atoms: _146  and  _147
REMARK   49  A    between atoms: _155  and  _157
REMARK   50  A    between atoms: _157  and  _158
REMARK   51  A    between atoms: _157  and  _160
REMARK   52  A    between atoms: _160  and  _161
REMARK   53  A    between atoms: _161  and  _162
REMARK   54  A    between atoms: _165  and  _167
REMARK   55  A    between atoms: _167  and  _168
REMARK   56  A    between atoms: _167  and  _170
REMARK   57  A    between atoms: _170  and  _171
REMARK   58  A    between atoms: _176  and  _178
REMARK   59  A    between atoms: _178  and  _179
REMARK   60  A    between atoms: _178  and  _181
REMARK   61  A    between atoms: _181  and  _182
REMARK   62  A    between atoms: _182  and  _183
REMARK   63  A    between atoms: _186  and  _188
REMARK   64  A    between atoms: _188  and  _189
REMARK   65  A    between atoms: _188  and  _191
REMARK   66  A    between atoms: _191  and  _192
REMARK   67  A    between atoms: _195  and  _197
REMARK   68  A    between atoms: _197  and  _198
REMARK   69  A    between atoms: _197  and  _200
REMARK   70  A    between atoms: _200  and  _201
REMARK   71  A    between atoms: _202  and  ZN_417
REMARK   72  A    between atoms: _206  and  _208
REMARK   73  A    between atoms: _208  and  _209
REMARK   74  A    between atoms: _208  and  _211
REMARK   75  A    between atoms: _211  and  _212
REMARK   76  A    between atoms: _215  and  _217
REMARK   77  A    between atoms: _217  and  _218
REMARK   78  A    between atoms: _217  and  _220
REMARK   79  A    between atoms: _223  and  _225
REMARK   80  A    between atoms: _225  and  _226
REMARK   81  A    between atoms: _225  and  _228
REMARK   82  A    between atoms: _228  and  _229
REMARK   83  A    between atoms: _234  and  _236
REMARK   84  A    between atoms: _236  and  _237
REMARK   85  A    between atoms: _236  and  _239
REMARK   86  A    between atoms: _239  and  _240
REMARK   87  A    between atoms: _246  and  _248
REMARK   88  A    between atoms: _248  and  _249
REMARK   89  A    between atoms: _248  and  _251
REMARK   90  A    between atoms: _254  and  _256
REMARK   91  A    between atoms: _256  and  _257
REMARK   92  A    between atoms: _256  and  _259
REMARK   93  A    between atoms: _259  and  _260
REMARK   94  A    between atoms: _263  and  _265
REMARK   95  A    between atoms: _265  and  _266
REMARK   96  A    between atoms: _269  and  _271
REMARK   97  A    between atoms: _271  and  _272
REMARK   98  A    between atoms: _271  and  _274
REMARK   99  A    between atoms: _277  and  _279
REMARK  100  A    between atoms: _279  and  _280
REMARK  101  A    between atoms: _279  and  _282
REMARK  102  A    between atoms: _282  and  _283
REMARK  103  A    between atoms: _286  and  _288
REMARK  104  A    between atoms: _288  and  _289
REMARK  105  A    between atoms: _291  and  _293
REMARK  106  A    between atoms: _293  and  _294
REMARK  107  A    between atoms: _293  and  _296
REMARK  108  A    between atoms: _296  and  _297
REMARK  109  A    between atoms: _299  and  _301
REMARK  110  A    between atoms: _301  and  _302
REMARK  111  A    between atoms: _301  and  _304
REMARK  112  A    between atoms: _304  and  _305
REMARK  113  A    between atoms: _308  and  _310
REMARK  114  A    between atoms: _310  and  _311
REMARK  115  A    between atoms: _310  and  _313
REMARK  116  A    between atoms: _313  and  _314
REMARK  117  A    between atoms: _317  and  _319
REMARK  118  A    between atoms: _319  and  _320
REMARK  119  A    between atoms: _319  and  _322
REMARK  120  A    between atoms: _322  and  _323
REMARK  121  A    between atoms: _327  and  _328
REMARK  122  A    between atoms: _334  and  _335
REMARK  123  A    between atoms: _340  and  _342
REMARK  124  A    between atoms: _342  and  _343
REMARK  125  A    between atoms: _342  and  _345
REMARK  126  A    between atoms: _345  and  _346
REMARK  127  A    between atoms: _349  and  _351
REMARK  128  A    between atoms: _351  and  _352
REMARK  129  A    between atoms: _351  and  _354
REMARK  130  A    between atoms: _354  and  _355
REMARK  131  A    between atoms: _358  and  _360
REMARK  132  A    between atoms: _360  and  _361
REMARK  133  A    between atoms: _360  and  _363
REMARK  134  A    between atoms: _365  and  _367
REMARK  135  A    between atoms: _367  and  _368
REMARK  136  A    between atoms: _367  and  _370
REMARK  137  A    between atoms: _373  and  _375
REMARK  138  A    between atoms: _375  and  _376
REMARK  139  A    between atoms: _375  and  _378
REMARK  140  A    between atoms: _378  and  _379
REMARK  141  A    between atoms: _389  and  _391
REMARK  142  A    between atoms: _391  and  _392
REMARK  143  A    between atoms: _391  and  _394
REMARK  144  A    between atoms: _394  and  _395
REMARK  145  A    between atoms: _400  and  _402
REMARK  146  A    between atoms: _402  and  _403
REMARK  147  A    between atoms: _402  and  _405
REMARK  148  A    between atoms: _405  and  _406
REMARK  149  A    between atoms: _406  and  _407
REMARK  150  A    between atoms: _407  and  _408
REMARK                            x       y       z     vdW  Elec       q    Type
REMARK                         _______ _______ _______ _____ _____    ______ ____
ROOT
ATOM      1  C   HIS A   1      -2.295  -3.936   7.695  0.00  0.00    +0.239 C 
ATOM      2  O   HIS A   1      -2.476  -4.965   8.341  0.00  0.00    -0.274 OA
ATOM      3  N   SER A   2      -3.276  -3.186   7.203  0.00  0.00    -0.296 N 
ATOM      4  H   SER A   2      -3.051  -2.291   6.724  0.00  0.00    +0.150 HD
ENDROOT
BRANCH   1   5
ATOM      5  CA  HIS A   1      -0.868  -3.481   7.397  0.00  0.00    +0.151 C 
BRANCH   5   6
ATOM      6  N   HIS A   1      -0.886  -2.539   6.259  0.00  0.00    -0.238 NA
ATOM      7  H   HIS A   1      -1.575  -1.765   6.174  0.00  0.00    +0.142 HD
ENDBRANCH   5   6
BRANCH   5   8
ATOM      8  CB  HIS A   1      -0.191  -2.913   8.628  0.00  0.00    +0.074 C 
BRANCH   8   9
ATOM      9  CG  HIS A   1      -0.689  -1.585   9.088  0.00  0.00    +0.082 A 
ATOM     10  ND1 HIS A   1      -1.741  -1.446   9.966  0.00  0.00    -0.227 NA
ATOM     11  CE1 HIS A   1      -1.971  -0.167  10.200  0.00  0.00    +0.199 A 
ATOM     12  NE2 HIS A   1      -1.096   0.530   9.498  0.00  0.00    -0.221 NA
ATOM     13  CD2 HIS A   1      -0.284  -0.328   8.792  0.00  0.00    +0.115 A 
ENDBRANCH   8   9
ENDBRANCH   5   8
ENDBRANCH   1   5
BRANCH   3  14
ATOM     14  CA  SER A   2      -4.656  -3.607   7.330  0.00  0.00    +0.166 C 
BRANCH  14  15
ATOM     15  C   SER A   2      -5.467  -2.943   6.219  0.00  0.00    +0.229 C 
ATOM     16  O   SER A   2      -4.873  -2.244   5.392  0.00  0.00    -0.286 OA
ENDBRANCH  14  15
BRANCH  14  17
ATOM     17  CB  SER A   2      -5.184  -3.289   8.729  0.00  0.00    +0.165 C 
BRANCH  17  18
ATOM     18  OG  SER A   2      -6.163  -2.268   8.708  0.00  0.00    -0.380 OA
ATOM     19  H   SER A   2      -6.926  -2.556   8.147  0.00  0.00    +0.211 HD
ENDBRANCH  17  18
ENDBRANCH  14  17
ENDBRANCH   3  14
TORSDOF 8
REMARK  Name = ../refined-set-2016/3dcc/3dcc_pocket.pdb
REMARK  150 active torsions:
REMARK  status: ('A' for Active; 'I' for Inactive)
REMARK    1  A    between atoms: _1  and  _3
REMARK    2  A    between atoms: _3  and  _4
REMARK    3  A    between atoms: _3  and  _6
REMARK    4  A    between atoms: _6  and  _7
REMARK    5  A    between atoms: _17  and  _19
REMARK    6  A    between atoms: _19  and  _20
REMARK    7  A    between atoms: _19  and  _22
REMARK    8  A    between atoms: _22  and  _23
REMARK    9  A    between atoms: _28  and  _29
REMARK   10  A    between atoms: _31  and  _33
REMARK   11  A    between atoms: _33  and  _34
REMARK   12  A    between atoms: _33  and  _36
REMARK   13  A    between atoms: _36  and  _37
REMARK   14  A    between atoms: _40  and  _41
REMARK   15  A    between atoms: _46  and  _48
REMARK   16  A    between atoms: _48  and  _49
REMARK   17  A    between atoms: _48  and  _51
REMARK   18  A    between atoms: _51  and  _52
REMARK   19  A    between atoms: _57  and  _59
REMARK   20  A    between atoms: _59  and  _60
REMARK   21  A    between atoms: _59  and  _62
REMARK   22  A    between atoms: _62  and  _63
REMARK   23  A    between atoms: _68  and  _70
REMARK   24  A    between atoms: _70  and  _71
REMARK   25  A    between atoms: _70  and  _73
REMARK   26  A    between atoms: _73  and  _74
REMARK   27  A    between atoms: _76  and  _78
REMARK   28  A    between atoms: _78  and  _79
REMARK   29  A    between atoms: _78  and  _81
REMARK   30  A    between atoms: _81  and  _82
REMARK   31  A    between atoms: _82  and  _83
REMARK   32  A    between atoms: _88  and  _90
REMARK   33  A    between atoms: _90  and  _91
REMARK   34  A    between atoms: _90  and  _93
REMARK   35  A    between atoms: _93  and  _94
REMARK   36  A    between atoms: _97  and  _99
REMARK   37  A    between atoms: _99  and  _100
REMARK   38  A    between atoms: _99  and  _102
REMARK   39  A    between atoms: _102  and  _103
REMARK   40  A    between atoms: _103  and  _104
REMARK   41  A    between atoms: _109  and  _111
REMARK   42  A    between atoms: _111  and  _112
REMARK   43  A    between atoms: _111  and  _114
REMARK   44  A    between atoms: _114  and  _115
REMARK   45  A    between atoms: _121  and  _123
REMARK   46  A    between atoms: _134  and  _137
REMARK   47  A    between atoms: _137  and  _138
REMARK   48  A    between atoms: _146  and  _147
REMARK   49  A    between atoms: _155  and  _157
REMARK   50  A    between atoms: _157  and  _158
REMARK   51  A    between atoms: _157  and  _160
REMARK   52  A    between atoms: _160  and  _161
REMARK   53  A    between atoms: _161  and  _162
REMARK   54  A    between atoms: _165  and  _167
REMARK   55  A    between atoms: _167  and  _168
REMARK   56  A    between atoms: _167  and  _170
REMARK   57  A    between atoms: _170  and  _171
REMARK   58  A    between atoms: _176  and  _178
REMARK   59  A    between atoms: _178  and  _179
REMARK   60  A    between atoms: _178  and  _181
REMARK   61  A    between atoms: _181  and  _182
REMARK   62  A    between atoms: _182  and  _183
REMARK   63  A    between atoms: _186  and  _188
REMARK   64  A    between atoms: _188  and  _189
REMARK   65  A    between atoms: _188  and  _191
REMARK   66  A    between atoms: _191  and  _192
REMARK   67  A    between atoms: _195  and  _197
REMARK   68  A    between atoms: _197  and  _198
REMARK   69  A    between atoms: _197  and  _200
REMARK   70  A    between atoms: _200  and  _201
REMARK   71  A    between atoms: _202  and  ZN_417
REMARK   72  A    between atoms: _206  and  _208
REMARK   73  A    between atoms: _208  and  _209
REMARK   74  A    between atoms: _208  and  _211
REMARK   75  A    between atoms: _211  and  _212
REMARK   76  A    between atoms: _215  and  _217
REMARK   77  A    between atoms: _217  and  _218
REMARK   78  A    between atoms: _217  and  _220
REMARK   79  A    between atoms: _223  and  _225
REMARK   80  A    between atoms: _225  and  _226
REMARK   81  A    between atoms: _225  and  _228
REMARK   82  A    between atoms: _228  and  _229
REMARK   83  A    between atoms: _234  and  _236
REMARK   84  A    between atoms: _236  and  _237
REMARK   85  A    between atoms: _236  and  _239
REMARK   86  A    between atoms: _239  and  _240
REMARK   87  A    between atoms: _246  and  _248
REMARK   88  A    between atoms: _248  and  _249
REMARK   89  A    between atoms: _248  and  _251
REMARK   90  A    between atoms: _254  and  _256
REMARK   91  A    between atoms: _256  and  _257
REMARK   92  A    between atoms: _256  and  _259
REMARK   93  A    between atoms: _259  and  _260
REMARK   94  A    between atoms: _263  and  _265
REMARK   95  A    between atoms: _265  and  _266
REMARK   96  A    between atoms: _269  and  _271
REMARK   97  A    between atoms: _271  and  _272
REMARK   98  A    between atoms: _271  and  _274
REMARK   99  A    between atoms: _277  and  _279
REMARK  100  A    between atoms: _279  and  _280
REMARK  101  A    between atoms: _279  and  _282
REMARK  102  A    between atoms: _282  and  _283
REMARK  103  A    between atoms: _286  and  _288
REMARK  104  A    between atoms: _288  and  _289
REMARK  105  A    between atoms: _291  and  _293
REMARK  106  A    between atoms: _293  and  _294
REMARK  107  A    between atoms: _293  and  _296
REMARK  108  A    between atoms: _296  and  _297
REMARK  109  A    between atoms: _299  and  _301
REMARK  110  A    between atoms: _301  and  _302
REMARK  111  A    between atoms: _301  and  _304
REMARK  112  A    between atoms: _304  and  _305
REMARK  113  A    between atoms: _308  and  _310
REMARK  114  A    between atoms: _310  and  _311
REMARK  115  A    between atoms: _310  and  _313
REMARK  116  A    between atoms: _313  and  _314
REMARK  117  A    between atoms: _317  and  _319
REMARK  118  A    between atoms: _319  and  _320
REMARK  119  A    between atoms: _319  and  _322
REMARK  120  A    between atoms: _322  and  _323
REMARK  121  A    between atoms: _327  and  _328
REMARK  122  A    between atoms: _334  and  _335
REMARK  123  A    between atoms: _340  and  _342
REMARK  124  A    between atoms: _342  and  _343
REMARK  125  A    between atoms: _342  and  _345
REMARK  126  A    between atoms: _345  and  _346
REMARK  127  A    between atoms: _349  and  _351
REMARK  128  A    between atoms: _351  and  _352
REMARK  129  A    between atoms: _351  and  _354
REMARK  130  A    between atoms: _354  and  _355
REMARK  131  A    between atoms: _358  and  _360
REMARK  132  A    between atoms: _360  and  _361
REMARK  133  A    between atoms: _360  and  _363
REMARK  134  A    between atoms: _365  and  _367
REMARK  135  A    between atoms: _367  and  _368
REMARK  136  A    between atoms: _367  and  _370
REMARK  137  A    between atoms: _373  and  _375
REMARK  138  A    between atoms: _375  and  _376
REMARK  139  A    between atoms: _375  and  _378
REMARK  140  A    between atoms: _378  and  _379
REMARK  141  A    between atoms: _389  and  _391
REMARK  142  A    between atoms: _391  and  _392
REMARK  143  A    between atoms: _391  and  _394
REMARK  144  A    between atoms: _394  and  _395
REMARK  145  A    between atoms: _400  and  _402
REMARK  146  A    between atoms: _402  and  _403
REMARK  147  A    between atoms: _402  and  _405
REMARK  148  A    between atoms: _405  and  _406
REMARK  149  A    between atoms: _406  and  _407
REMARK  150  A    between atoms: _407  and  _408
REMARK                            x       y       z     vdW  Elec       q    Type
REMARK                         _______ _______ _______ _____ _____    ______ ____
ROOT
ATOM      1  CB  GLN A   1      -8.612   2.159   6.758  0.00  0.00    +0.035 C 
ENDROOT
BRANCH   1   2
ATOM      2  CA  GLN A   1      -9.347   0.853   6.549  0.00  0.00    +0.134 C 
BRANCH   2   3
ATOM      3  N   GLN A   1      -8.561  -0.094   5.768  0.00  0.00    -0.239 NA
ATOM      4  H   GLN A   1      -8.097   0.221   4.892  0.00  0.00    +0.142 HD
ENDBRANCH   2   3
BRANCH   2   5
ATOM      5  C   GLN A   1     -10.607   1.285   5.795  0.00  0.00    +0.224 C 
ATOM      6  O   GLN A   1     -10.453   1.646   4.617  0.00  0.00    -0.287 OA
ENDBRANCH   2   5
ENDBRANCH   1   2
BRANCH   1   7
ATOM      7  CG  GLN A   1      -7.572   2.357   7.807  0.00  0.00    +0.087 C 
BRANCH   7   8
ATOM      8  CD  GLN A   1      -7.065   1.085   8.411  0.00  0.00    +0.219 C 
ATOM      9  OE1 GLN A   1      -7.206   0.859   9.612  0.00  0.00    -0.275 OA
ATOM     10  NE2 GLN A   1      -6.383   0.282   7.598  0.00  0.00    -0.329 N 
ATOM     11 HE21 GLN A   1      -5.940  -0.582   7.971  0.00  0.00    +0.145 HD
ATOM     12 HE22 GLN A   1      -6.293   0.518   6.589  0.00  0.00    +0.145 HD
ENDBRANCH   7   8
ENDBRANCH   1   7
TORSDOF 5
REMARK  Name = ../refined-set-2016/3dcc/3dcc_pocket.pdb
REMARK  150 active torsions:
REMARK  status: ('A' for Active; 'I' for Inactive)
REMARK    1  A    between atoms: _1  and  _3
REMARK    2  A    between atoms: _3  and  _4
REMARK    3  A    between atoms: _3  and  _6
REMARK    4  A    between atoms: _6  and  _7
REMARK    5  A    between atoms: _17  and  _19
REMARK    6  A    between atoms: _19  and  _20
REMARK    7  A    between atoms: _19  and  _22
REMARK    8  A    between atoms: _22  and  _23
REMARK    9  A    between atoms: _28  and  _29
REMARK   10  A    between atoms: _31  and  _33
REMARK   11  A    between atoms: _33  and  _34
REMARK   12  A    between atoms: _33  and  _36
REMARK   13  A    between atoms: _36  and  _37
REMARK   14  A    between atoms: _40  and  _41
REMARK   15  A    between atoms: _46  and  _48
REMARK   16  A    between atoms: _48  and  _49
REMARK   17  A    between atoms: _48  and  _51
REMARK   18  A    between atoms: _51  and  _52
REMARK   19  A    between atoms: _57  and  _59
REMARK   20  A    between atoms: _59  and  _60
REMARK   21  A    between atoms: _59  and  _62
REMARK   22  A    between atoms: _62  and  _63
REMARK   23  A    between atoms: _68  and  _70
REMARK   24  A    between atoms: _70  and  _71
REMARK   25  A    between atoms: _70  and  _73
REMARK   26  A    between atoms: _73  and  _74
REMARK   27  A    between atoms: _76  and  _78
REMARK   28  A    between atoms: _78  and  _79
REMARK   29  A    between atoms: _78  and  _81
REMARK   30  A    between atoms: _81  and  _82
REMARK   31  A    between atoms: _82  and  _83
REMARK   32  A    between atoms: _88  and  _90
REMARK   33  A    between atoms: _90  and  _91
REMARK   34  A    between atoms: _90  and  _93
REMARK   35  A    between atoms: _93  and  _94
REMARK   36  A    between atoms: _97  and  _99
REMARK   37  A    between atoms: _99  and  _100
REMARK   38  A    between atoms: _99  and  _102
REMARK   39  A    between atoms: _102  and  _103
REMARK   40  A    between atoms: _103  and  _104
REMARK   41  A    between atoms: _109  and  _111
REMARK   42  A    between atoms: _111  and  _112
REMARK   43  A    between atoms: _111  and  _114
REMARK   44  A    between atoms: _114  and  _115
REMARK   45  A    between atoms: _121  and  _123
REMARK   46  A    between atoms: _134  and  _137
REMARK   47  A    between atoms: _137  and  _138
REMARK   48  A    between atoms: _146  and  _147
REMARK   49  A    between atoms: _155  and  _157
REMARK   50  A    between atoms: _157  and  _158
REMARK   51  A    between atoms: _157  and  _160
REMARK   52  A    between atoms: _160  and  _161
REMARK   53  A    between atoms: _161  and  _162
REMARK   54  A    between atoms: _165  and  _167
REMARK   55  A    between atoms: _167  and  _168
REMARK   56  A    between atoms: _167  and  _170
REMARK   57  A    between atoms: _170  and  _171
REMARK   58  A    between atoms: _176  and  _178
REMARK   59  A    between atoms: _178  and  _179
REMARK   60  A    between atoms: _178  and  _181
REMARK   61  A    between atoms: _181  and  _182
REMARK   62  A    between atoms: _182  and  _183
REMARK   63  A    between atoms: _186  and  _188
REMARK   64  A    between atoms: _188  and  _189
REMARK   65  A    between atoms: _188  and  _191
REMARK   66  A    between atoms: _191  and  _192
REMARK   67  A    between atoms: _195  and  _197
REMARK   68  A    between atoms: _197  and  _198
REMARK   69  A    between atoms: _197  and  _200
REMARK   70  A    between atoms: _200  and  _201
REMARK   71  A    between atoms: _202  and  ZN_417
REMARK   72  A    between atoms: _206  and  _208
REMARK   73  A    between atoms: _208  and  _209
REMARK   74  A    between atoms: _208  and  _211
REMARK   75  A    between atoms: _211  and  _212
REMARK   76  A    between atoms: _215  and  _217
REMARK   77  A    between atoms: _217  and  _218
REMARK   78  A    between atoms: _217  and  _220
REMARK   79  A    between atoms: _223  and  _225
REMARK   80  A    between atoms: _225  and  _226
REMARK   81  A    between atoms: _225  and  _228
REMARK   82  A    between atoms: _228  and  _229
REMARK   83  A    between atoms: _234  and  _236
REMARK   84  A    between atoms: _236  and  _237
REMARK   85  A    between atoms: _236  and  _239
REMARK   86  A    between atoms: _239  and  _240
REMARK   87  A    between atoms: _246  and  _248
REMARK   88  A    between atoms: _248  and  _249
REMARK   89  A    between atoms: _248  and  _251
REMARK   90  A    between atoms: _254  and  _256
REMARK   91  A    between atoms: _256  and  _257
REMARK   92  A    between atoms: _256  and  _259
REMARK   93  A    between atoms: _259  and  _260
REMARK   94  A    between atoms: _263  and  _265
REMARK   95  A    between atoms: _265  and  _266
REMARK   96  A    between atoms: _269  and  _271
REMARK   97  A    between atoms: _271  and  _272
REMARK   98  A    between atoms: _271  and  _274
REMARK   99  A    between atoms: _277  and  _279
REMARK  100  A    between atoms: _279  and  _280
REMARK  101  A    between atoms: _279  and  _282
REMARK  102  A    between atoms: _282  and  _283
REMARK  103  A    between atoms: _286  and  _288
REMARK  104  A    between atoms: _288  and  _289
REMARK  105  A    between atoms: _291  and  _293
REMARK  106  A    between atoms: _293  and  _294
REMARK  107  A    between atoms: _293  and  _296
REMARK  108  A    between atoms: _296  and  _297
REMARK  109  A    between atoms: _299  and  _301
REMARK  110  A    between atoms: _301  and  _302
REMARK  111  A    between atoms: _301  and  _304
REMARK  112  A    between atoms: _304  and  _305
REMARK  113  A    between atoms: _308  and  _310
REMARK  114  A    between atoms: _310  and  _311
REMARK  115  A    between atoms: _310  and  _313
REMARK  116  A    between atoms: _313  and  _314
REMARK  117  A    between atoms: _317  and  _319
REMARK  118  A    between atoms: _319  and  _320
REMARK  119  A    between atoms: _319  and  _322
REMARK  120  A    between atoms: _322  and  _323
REMARK  121  A    between atoms: _327  and  _328
REMARK  122  A    between atoms: _334  and  _335
REMARK  123  A    between atoms: _340  and  _342
REMARK  124  A    between atoms: _342  and  _343
REMARK  125  A    between atoms: _342  and  _345
REMARK  126  A    between atoms: _345  and  _346
REMARK  127  A    between atoms: _349  and  _351
REMARK  128  A    between atoms: _351  and  _352
REMARK  129  A    between atoms: _351  and  _354
REMARK  130  A    between atoms: _354  and  _355
REMARK  131  A    between atoms: _358  and  _360
REMARK  132  A    between atoms: _360  and  _361
REMARK  133  A    between atoms: _360  and  _363
REMARK  134  A    between atoms: _365  and  _367
REMARK  135  A    between atoms: _367  and  _368
REMARK  136  A    between atoms: _367  and  _370
REMARK  137  A    between atoms: _373  and  _375
REMARK  138  A    between atoms: _375  and  _376
REMARK  139  A    between atoms: _375  and  _378
REMARK  140  A    between atoms: _378  and  _379
REMARK  141  A    between atoms: _389  and  _391
REMARK  142  A    between atoms: _391  and  _392
REMARK  143  A    between atoms: _391  and  _394
REMARK  144  A    between atoms: _394  and  _395
REMARK  145  A    between atoms: _400  and  _402
REMARK  146  A    between atoms: _402  and  _403
REMARK  147  A    between atoms: _402  and  _405
REMARK  148  A    between atoms: _405  and  _406
REMARK  149  A    between atoms: _406  and  _407
REMARK  150  A    between atoms: _407  and  _408
REMARK                            x       y       z     vdW  Elec       q    Type
REMARK                         _______ _______ _______ _____ _____    ______ ____
ROOT
ATOM      1  C   UNK A   4     -10.348  -1.774  10.367  0.00  0.00    +0.000 C 
ATOM      2  C   UNK A   4     -10.451  -3.102  11.120  0.00  0.00    +0.000 C 
ATOM      3  O   UNK A   4     -11.073  -3.142  12.181  0.00  0.00    +0.000 OA
ATOM      4  N   VAL A   5      -9.791  -4.129  10.603  0.00  0.00    +0.000 N 
ATOM      5  CA  VAL A   5      -9.738  -5.414  11.284  0.00  0.00    +0.000 C 
ATOM      6  C   VAL A   5      -8.292  -5.838  11.528  0.00  0.00    +0.000 C 
ATOM      7  N   UNK A   6      -8.173  -6.771  12.462  0.00  0.00    +0.000 N 
ATOM      8  H   UNK A   6      -8.975  -6.913  13.108  0.00  0.00    +0.000 HD
ATOM      9  C   UNK A   6      -6.999  -7.611  12.647  0.00  0.00    +0.000 C 
ATOM     10  C   UNK A   6      -6.333  -7.381  13.999  0.00  0.00    +0.000 C 
ATOM     11  C   UNK A   6      -6.002  -5.942  14.293  0.00  0.00    +0.000 A 
ATOM     12  C   UNK A   6      -6.780  -4.911  14.729  0.00  0.00    +0.000 A 
ATOM     13  N   UNK A   6      -5.938  -3.799  14.821  0.00  0.00    +0.000 N 
ATOM     14 ZN   UNK A   6      -6.884  -2.038  15.413  0.00  0.00    +0.000 Zn
ATOM     15  N   UNK A   4      -7.569  -1.170  13.749  0.00  0.00    +0.000 N 
ATOM     16  C   UNK A   4      -8.004   0.088  13.618  0.00  0.00    +0.000 A 
ATOM     17  N   UNK A   4      -8.519   0.225  12.393  0.00  0.00    +0.000 NA
ATOM     18  C   UNK A   4      -8.414  -1.005  11.742  0.00  0.00    +0.000 A 
ATOM     19  C   UNK A   4      -7.805  -1.860  12.606  0.00  0.00    +0.000 A 
ATOM     20  C   UNK A   6      -4.726  -4.132  14.454  0.00  0.00    +0.000 A 
ATOM     21  N   UNK A   6      -4.725  -5.438  14.115  0.00  0.00    +0.000 NA
ATOM     22  O   VAL A   5      -7.375  -5.343  10.898  0.00  0.00    +0.000 OA
ATOM     23  H   VAL A   5      -9.301  -4.014   9.693  0.00  0.00    +0.000 HD
ATOM     24  C   UNK A   4      -8.904  -1.233  10.342  0.00  0.00    +0.000 C 
ENDROOT
BRANCH  14  25
ATOM     25  N   UNK A   6      -8.326  -2.781  16.642  0.00  0.00    +0.000 N 
ATOM     26  C   UNK A   6      -8.031  -3.658  17.591  0.00  0.00    +0.000 A 
ATOM     27  N   UNK A   6      -9.149  -3.994  18.223  0.00  0.00    +0.000 NA
ATOM     28  C   UNK A   6     -10.197  -3.298  17.673  0.00  0.00    +0.000 A 
ATOM     29  C   UNK A   6      -9.679  -2.534  16.674  0.00  0.00    +0.000 A 
BRANCH  29  30
ATOM     30  C   UNK A   6     -10.378  -1.569  15.750  0.00  0.00    +0.000 C 
BRANCH  30  31
ATOM     31  C   UNK A   6     -11.880  -1.801  15.677  0.00  0.00    +0.000 C 
BRANCH  31  32
ATOM     32  C   UNK A   6     -12.582  -0.614  15.018  0.00  0.00    +0.000 C 
ATOM     33  N   UNK A   4     -13.521  -0.023  15.716  0.00  0.00    +0.000 N 
ATOM     34  H   UNK A   4     -13.800  -0.439  16.628  0.00  0.00    +0.000 HD
ATOM     35  O   UNK A   6     -12.257  -0.313  13.857  0.00  0.00    +0.000 OA
BRANCH  33  36
ATOM     36  C   UNK A   4     -14.198   1.204  15.265  0.00  0.00    +0.000 C 
BRANCH  36  37
ATOM     37  C   UNK A   4     -13.558   2.359  16.040  0.00  0.00    +0.000 C 
ATOM     38  O   UNK A   4     -13.759   2.410  17.260  0.00  0.00    +0.000 OA
ATOM     39  N   VAL A   5     -12.800   3.187  15.336  0.00  0.00    +0.000 N 
ATOM     40  H   VAL A   5     -12.799   3.109  14.299  0.00  0.00    +0.000 HD
BRANCH  39  41
ATOM     41  CA  VAL A   5     -11.967   4.205  15.967  0.00  0.00    +0.000 C 
BRANCH  41  42
ATOM     42  C   VAL A   5     -12.688   5.560  16.020  0.00  0.00    +0.000 C 
ATOM     43  N   UNK A   6     -12.750   6.177  17.191  0.00  0.00    +0.000 N 
ATOM     44  H   UNK A   6     -12.286   5.756  18.021  0.00  0.00    +0.000 HD
ATOM     45  O   VAL A   5     -13.147   5.989  14.941  0.00  0.00    +0.000 OA
BRANCH  43  46
ATOM     46  C   UNK A   6     -13.466   7.447  17.326  0.00  0.00    +0.000 C 
BRANCH  46  47
ATOM     47  C   UNK A   6     -12.611   8.470  18.074  0.00  0.00    +0.000 C 
ATOM     48  O   UNK A   6     -11.845   8.015  18.933  0.00  0.00    +0.000 OA
ENDBRANCH  46  47
BRANCH  46  49
ATOM     49  C   UNK A   6     -14.754   7.320  18.127  0.00  0.00    +0.000 C 
BRANCH  49  50
ATOM     50  C   UNK A   6     -15.680   6.216  17.746  0.00  0.00    +0.000 A 
ATOM     51  N   UNK A   6     -15.362   4.888  17.928  0.00  0.00    +0.000 NA
ATOM     52  C   UNK A   6     -16.368   4.139  17.519  0.00  0.00    +0.000 A 
ATOM     53  N   UNK A   6     -17.340   4.936  17.086  0.00  0.00    +0.000 NA
ATOM     54  C   UNK A   6     -16.933   6.236  17.232  0.00  0.00    +0.000 A 
ENDBRANCH  49  50
ENDBRANCH  46  49
ENDBRANCH  43  46
ENDBRANCH  41  42
BRANCH  41  55
ATOM     55  CB  VAL A   5     -10.650   4.393  15.187  0.00  0.00    +0.000 C 
ATOM     56  CG2 VAL A   5      -9.833   5.488  15.853  0.00  0.00    +0.000 C 
ATOM     57  CG1 VAL A   5      -9.852   3.087  15.071  0.00  0.00    +0.000 C 
ENDBRANCH  41  55
ENDBRANCH  39  41
ENDBRANCH  36  37
BRANCH  36  58
ATOM     58  C   UNK A   4     -15.702   1.136  15.481  0.00  0.00    +0.000 C 
BRANCH  58  59
ATOM     59  C   UNK A   4     -16.426   0.095  14.589  0.00  0.00    +0.000 C 
ATOM     60  C   UNK A   4     -17.136  -0.941  15.411  0.00  0.00    +0.000 C 
ATOM     61  C   UNK A   4     -17.402   0.795  13.654  0.00  0.00    +0.000 C 
ENDBRANCH  58  59
ENDBRANCH  36  58
ENDBRANCH  33  36
ENDBRANCH  31  32
BRANCH  31  62
ATOM     62  N   UNK A   6     -12.147  -3.014  14.889  0.00  0.00    +0.000 N 
ATOM     63  C   LEU A   2     -12.789  -4.062  15.386  0.00  0.00    +0.000 C 
ATOM     64  O   LEU A   2     -13.200  -4.124  16.540  0.00  0.00    +0.000 OA
ATOM     65  H   UNK A   6     -11.819  -3.051  13.903  0.00  0.00    +0.000 HD
BRANCH  63  66
ATOM     66  CA  LEU A   2     -12.997  -5.256  14.452  0.00  0.00    +0.000 C 
BRANCH  66  67
ATOM     67  N   LEU A   2     -12.541  -6.486  15.104  0.00  0.00    +0.000 N 
ATOM     68  H   LEU A   2     -13.215  -6.961  15.738  0.00  0.00    +0.000 HD
ATOM     69  C   GLU A   1     -11.368  -7.043  14.965  0.00  0.00    +0.000 C 
ATOM     70  O   GLU A   1     -10.463  -6.664  14.236  0.00  0.00    +0.000 OA
BRANCH  69  71
ATOM     71  CA  GLU A   1     -11.154  -8.329  15.789  0.00  0.00    +0.000 C 
BRANCH  71  72
ATOM     72  N   GLU A   1     -10.646  -9.348  14.875  0.00  0.00    +0.000 NA
ATOM     73  H   GLU A   1      -9.986  -9.086  14.115  0.00  0.00    +0.000 HD
ENDBRANCH  71  72
BRANCH  71  74
ATOM     74  CB  GLU A   1     -10.228  -8.065  16.976  0.00  0.00    +0.000 C 
BRANCH  74  75
ATOM     75  CG  GLU A   1     -10.807  -7.129  18.037  0.00  0.00    +0.000 C 
BRANCH  75  76
ATOM     76  CD  GLU A   1      -9.875  -7.064  19.239  0.00  0.00    +0.000 C 
ATOM     77  OE2 GLU A   1      -9.779  -6.015  19.905  0.00  0.00    +0.000 OA
ATOM     78  OE1 GLU A   1      -9.211  -8.090  19.522  0.00  0.00    +0.000 OA
ENDBRANCH  75  76
ENDBRANCH  74  75
ENDBRANCH  71  74
ENDBRANCH  69  71
ENDBRANCH  66  67
BRANCH  66  79
ATOM     79  CB  LEU A   2     -14.467  -5.406  14.089  0.00  0.00    +0.000 C 
BRANCH  79  80
ATOM     80  CG  LEU A   2     -15.260  -4.176  13.657  0.00  0.00    +0.000 C 
ATOM     81  CD2 LEU A   2     -16.685  -4.616  13.346  0.00  0.00    +0.000 C 
ATOM     82  CD1 LEU A   2     -14.642  -3.488  12.440  0.00  0.00    +0.000 C 
ENDBRANCH  79  80
ENDBRANCH  66  79
ENDBRANCH  63  66
ENDBRANCH  31  62
ENDBRANCH  30  31
ENDBRANCH  29  30
ENDBRANCH  14  25
BRANCH   1  84
ATOM     83  C   UNK A   3     -11.790   0.187  10.299  0.00  0.00    +0.000 C 
ATOM     84  N   UNK A   4     -11.285  -0.836  10.991  0.00  0.00    +0.000 N 
ATOM     85  H   UNK A   4     -11.560  -0.969  11.985  0.00  0.00    +0.000 HD
ATOM     86  O   UNK A   3     -11.565   0.415   9.111  0.00  0.00    +0.000 OA
BRANCH  83  87
ATOM     87  C   UNK A   3     -12.744   1.079  11.112  0.00  0.00    +0.000 C 
BRANCH  87  90
ATOM     88  C   LEU A   2     -12.702   3.487  11.203  0.00  0.00    +0.000 C 
ATOM     89  O   LEU A   2     -12.763   3.492  12.415  0.00  0.00    +0.000 OA
ATOM     90  N   UNK A   3     -12.823   2.380  10.440  0.00  0.00    +0.000 N 
ATOM     91  H   UNK A   3     -12.967   2.447   9.412  0.00  0.00    +0.000 HD
BRANCH  88  92
ATOM     92  CA  LEU A   2     -12.459   4.790  10.431  0.00  0.00    +0.000 C 
BRANCH  92  94
ATOM     93  C   GLU A   1     -12.890   7.149  10.766  0.00  0.00    +0.000 C 
ATOM     94  N   LEU A   2     -12.733   5.930  11.309  0.00  0.00    +0.000 N 
ATOM     95  H   LEU A   2     -12.805   5.798  12.338  0.00  0.00    +0.000 HD
ATOM     96  O   GLU A   1     -12.799   7.288   9.539  0.00  0.00    +0.000 OA
BRANCH  93  97
ATOM     97  CA  GLU A   1     -13.244   8.307  11.690  0.00  0.00    +0.000 C 
BRANCH  97  98
ATOM     98  CB  GLU A   1     -11.982   9.030  12.185  0.00  0.00    +0.000 C 
ATOM     99  CG2 GLU A   1     -11.267   8.241  13.271  0.00  0.00    +0.000 C 
BRANCH  98 100
ATOM    100  CG1 GLU A   1     -10.988   9.383  11.068  0.00  0.00    +0.000 C 
ATOM    101  CD1 GLU A   1      -9.806  10.190  11.598  0.00  0.00    +0.000 C 
ENDBRANCH  98 100
ENDBRANCH  97  98
BRANCH  97 102
ATOM    102  N   GLU A   1     -14.075   7.868  12.819  0.00  0.00    +0.000 NA
ATOM    103  H   GLU A   1     -13.713   7.183  13.513  0.00  0.00    +0.000 HD
ENDBRANCH  97 102
ENDBRANCH  93  97
ENDBRANCH  92  94
BRANCH  92 104
ATOM    104  CB  LEU A   2     -11.019   4.739   9.895  0.00  0.00    +0.000 C 
BRANCH 104 105
ATOM    105  CG  LEU A   2      -9.957   4.803  10.979  0.00  0.00    +0.000 C 
BRANCH 105 106
ATOM    106  CD  LEU A   2      -9.111   3.548  11.088  0.00  0.00    +0.000 C 
ATOM    107  OE1 LEU A   2      -9.621   2.488  11.418  0.00  0.00    +0.000 OA
ATOM    108  NE2 LEU A   2      -7.813   3.632  10.827  0.00  0.00    +0.000 N 
ATOM    109 HE21 LEU A   2      -7.212   2.787  10.902  0.00  0.00    +0.000 HD
ATOM    110 HE22 LEU A   2      -7.397   4.543  10.547  0.00  0.00    +0.000 HD
ENDBRANCH 105 106
ENDBRANCH 104 105
ENDBRANCH  92 104
ENDBRANCH  88  92
ENDBRANCH  87  90
BRANCH  87 111
ATOM    111  C   UNK A   3     -14.090   0.387  11.302  0.00  0.00    +0.000 C 
BRANCH 111 112
ATOM    112  C   UNK A   3     -14.880  -0.108  10.106  0.00  0.00    +0.000 A 
ATOM    113  C   UNK A   3     -15.952   0.663   9.629  0.00  0.00    +0.000 A 
ATOM    114  C   UNK A   3     -16.670   0.171   8.556  0.00  0.00    +0.000 A 
ATOM    115  C   UNK A   3     -16.350  -1.011   7.901  0.00  0.00    +0.000 A 
ATOM    116  C   UNK A   3     -15.284  -1.765   8.357  0.00  0.00    +0.000 A 
ATOM    117  C   UNK A   3     -14.586  -1.296   9.444  0.00  0.00    +0.000 A 
ENDBRANCH 111 112
ENDBRANCH  87 111
ENDBRANCH  83  87
ENDBRANCH   1  84
BRANCH   9 118
ATOM    118  C   UNK A   6      -7.448  -9.072  12.505  0.00  0.00    +0.000 C 
ATOM    119  O   UNK A   6      -8.543  -9.399  12.988  0.00  0.00    +0.000 OA
ENDBRANCH   9 118
BRANCH   5 120
ATOM    120  CB  VAL A   5     -10.428  -6.531  10.477  0.00  0.00    +0.000 C 
BRANCH 120 121
ATOM    121  CG  VAL A   5     -11.897  -6.294  10.151  0.00  0.00    +0.000 A 
ATOM    122  CD2 VAL A   5     -12.888  -6.959  10.877  0.00  0.00    +0.000 A 
ATOM    123  CE2 VAL A   5     -14.225  -6.737  10.554  0.00  0.00    +0.000 A 
ATOM    124  CZ  VAL A   5     -14.586  -5.869   9.515  0.00  0.00    +0.000 A 
ATOM    125  CE1 VAL A   5     -13.596  -5.220   8.790  0.00  0.00    +0.000 A 
ATOM    126  CD1 VAL A   5     -12.268  -5.436   9.125  0.00  0.00    +0.000 A 
ENDBRANCH 120 121
ENDBRANCH   5 120
TORSDOF 42
REMARK  Name = ../refined-set-2016/3dcc/3dcc_pocket.pdb
REMARK  150 active torsions:
REMARK  status: ('A' for Active; 'I' for Inactive)
REMARK    1  A    between atoms: _1  and  _3
REMARK    2  A    between atoms: _3  and  _4
REMARK    3  A    between atoms: _3  and  _6
REMARK    4  A    between atoms: _6  and  _7
REMARK    5  A    between atoms: _17  and  _19
REMARK    6  A    between atoms: _19  and  _20
REMARK    7  A    between atoms: _19  and  _22
REMARK    8  A    between atoms: _22  and  _23
REMARK    9  A    between atoms: _28  and  _29
REMARK   10  A    between atoms: _31  and  _33
REMARK   11  A    between atoms: _33  and  _34
REMARK   12  A    between atoms: _33  and  _36
REMARK   13  A    between atoms: _36  and  _37
REMARK   14  A    between atoms: _40  and  _41
REMARK   15  A    between atoms: _46  and  _48
REMARK   16  A    between atoms: _48  and  _49
REMARK   17  A    between atoms: _48  and  _51
REMARK   18  A    between atoms: _51  and  _52
REMARK   19  A    between atoms: _57  and  _59
REMARK   20  A    between atoms: _59  and  _60
REMARK   21  A    between atoms: _59  and  _62
REMARK   22  A    between atoms: _62  and  _63
REMARK   23  A    between atoms: _68  and  _70
REMARK   24  A    between atoms: _70  and  _71
REMARK   25  A    between atoms: _70  and  _73
REMARK   26  A    between atoms: _73  and  _74
REMARK   27  A    between atoms: _76  and  _78
REMARK   28  A    between atoms: _78  and  _79
REMARK   29  A    between atoms: _78  and  _81
REMARK   30  A    between atoms: _81  and  _82
REMARK   31  A    between atoms: _82  and  _83
REMARK   32  A    between atoms: _88  and  _90
REMARK   33  A    between atoms: _90  and  _91
REMARK   34  A    between atoms: _90  and  _93
REMARK   35  A    between atoms: _93  and  _94
REMARK   36  A    between atoms: _97  and  _99
REMARK   37  A    between atoms: _99  and  _100
REMARK   38  A    between atoms: _99  and  _102
REMARK   39  A    between atoms: _102  and  _103
REMARK   40  A    between atoms: _103  and  _104
REMARK   41  A    between atoms: _109  and  _111
REMARK   42  A    between atoms: _111  and  _112
REMARK   43  A    between atoms: _111  and  _114
REMARK   44  A    between atoms: _114  and  _115
REMARK   45  A    between atoms: _121  and  _123
REMARK   46  A    between atoms: _134  and  _137
REMARK   47  A    between atoms: _137  and  _138
REMARK   48  A    between atoms: _146  and  _147
REMARK   49  A    between atoms: _155  and  _157
REMARK   50  A    between atoms: _157  and  _158
REMARK   51  A    between atoms: _157  and  _160
REMARK   52  A    between atoms: _160  and  _161
REMARK   53  A    between atoms: _161  and  _162
REMARK   54  A    between atoms: _165  and  _167
REMARK   55  A    between atoms: _167  and  _168
REMARK   56  A    between atoms: _167  and  _170
REMARK   57  A    between atoms: _170  and  _171
REMARK   58  A    between atoms: _176  and  _178
REMARK   59  A    between atoms: _178  and  _179
REMARK   60  A    between atoms: _178  and  _181
REMARK   61  A    between atoms: _181  and  _182
REMARK   62  A    between atoms: _182  and  _183
REMARK   63  A    between atoms: _186  and  _188
REMARK   64  A    between atoms: _188  and  _189
REMARK   65  A    between atoms: _188  and  _191
REMARK   66  A    between atoms: _191  and  _192
REMARK   67  A    between atoms: _195  and  _197
REMARK   68  A    between atoms: _197  and  _198
REMARK   69  A    between atoms: _197  and  _200
REMARK   70  A    between atoms: _200  and  _201
REMARK   71  A    between atoms: _202  and  ZN_417
REMARK   72  A    between atoms: _206  and  _208
REMARK   73  A    between atoms: _208  and  _209
REMARK   74  A    between atoms: _208  and  _211
REMARK   75  A    between atoms: _211  and  _212
REMARK   76  A    between atoms: _215  and  _217
REMARK   77  A    between atoms: _217  and  _218
REMARK   78  A    between atoms: _217  and  _220
REMARK   79  A    between atoms: _223  and  _225
REMARK   80  A    between atoms: _225  and  _226
REMARK   81  A    between atoms: _225  and  _228
REMARK   82  A    between atoms: _228  and  _229
REMARK   83  A    between atoms: _234  and  _236
REMARK   84  A    between atoms: _236  and  _237
REMARK   85  A    between atoms: _236  and  _239
REMARK   86  A    between atoms: _239  and  _240
REMARK   87  A    between atoms: _246  and  _248
REMARK   88  A    between atoms: _248  and  _249
REMARK   89  A    between atoms: _248  and  _251
REMARK   90  A    between atoms: _254  and  _256
REMARK   91  A    between atoms: _256  and  _257
REMARK   92  A    between atoms: _256  and  _259
REMARK   93  A    between atoms: _259  and  _260
REMARK   94  A    between atoms: _263  and  _265
REMARK   95  A    between atoms: _265  and  _266
REMARK   96  A    between atoms: _269  and  _271
REMARK   97  A    between atoms: _271  and  _272
REMARK   98  A    between atoms: _271  and  _274
REMARK   99  A    between atoms: _277  and  _279
REMARK  100  A    between atoms: _279  and  _280
REMARK  101  A    between atoms: _279  and  _282
REMARK  102  A    between atoms: _282  and  _283
REMARK  103  A    between atoms: _286  and  _288
REMARK  104  A    between atoms: _288  and  _289
REMARK  105  A    between atoms: _291  and  _293
REMARK  106  A    between atoms: _293  and  _294
REMARK  107  A    between atoms: _293  and  _296
REMARK  108  A    between atoms: _296  and  _297
REMARK  109  A    between atoms: _299  and  _301
REMARK  110  A    between atoms: _301  and  _302
REMARK  111  A    between atoms: _301  and  _304
REMARK  112  A    between atoms: _304  and  _305
REMARK  113  A    between atoms: _308  and  _310
REMARK  114  A    between atoms: _310  and  _311
REMARK  115  A    between atoms: _310  and  _313
REMARK  116  A    between atoms: _313  and  _314
REMARK  117  A    between atoms: _317  and  _319
REMARK  118  A    between atoms: _319  and  _320
REMARK  119  A    between atoms: _319  and  _322
REMARK  120  A    between atoms: _322  and  _323
REMARK  121  A    between atoms: _327  and  _328
REMARK  122  A    between atoms: _334  and  _335
REMARK  123  A    between atoms: _340  and  _342
REMARK  124  A    between atoms: _342  and  _343
REMARK  125  A    between atoms: _342  and  _345
REMARK  126  A    between atoms: _345  and  _346
REMARK  127  A    between atoms: _349  and  _351
REMARK  128  A    between atoms: _351  and  _352
REMARK  129  A    between atoms: _351  and  _354
REMARK  130  A    between atoms: _354  and  _355
REMARK  131  A    between atoms: _358  and  _360
REMARK  132  A    between atoms: _360  and  _361
REMARK  133  A    between atoms: _360  and  _363
REMARK  134  A    between atoms: _365  and  _367
REMARK  135  A    between atoms: _367  and  _368
REMARK  136  A    between atoms: _367  and  _370
REMARK  137  A    between atoms: _373  and  _375
REMARK  138  A    between atoms: _375  and  _376
REMARK  139  A    between atoms: _375  and  _378
REMARK  140  A    between atoms: _378  and  _379
REMARK  141  A    between atoms: _389  and  _391
REMARK  142  A    between atoms: _391  and  _392
REMARK  143  A    between atoms: _391  and  _394
REMARK  144  A    between atoms: _394  and  _395
REMARK  145  A    between atoms: _400  and  _402
REMARK  146  A    between atoms: _402  and  _403
REMARK  147  A    between atoms: _402  and  _405
REMARK  148  A    between atoms: _405  and  _406
REMARK  149  A    between atoms: _406  and  _407
REMARK  150  A    between atoms: _407  and  _408
REMARK                            x       y       z     vdW  Elec       q    Type
REMARK                         _______ _______ _______ _____ _____    ______ ____
ROOT
ATOM      1  C   GLU A   1      -6.067  -8.905  21.139  0.00  0.00    +0.238 C 
ATOM      2  O   GLU A   1      -5.208  -9.401  21.885  0.00  0.00    -0.274 OA
ATOM      3  N   HIS A   2      -7.280  -8.505  21.539  0.00  0.00    -0.298 N 
ATOM      4  H   HIS A   2      -7.906  -7.980  20.895  0.00  0.00    +0.150 HD
ENDROOT
BRANCH   1   5
ATOM      5  CA  GLU A   1      -5.762  -8.742  19.655  0.00  0.00    +0.145 C 
BRANCH   5   6
ATOM      6  N   GLU A   1      -6.832  -9.379  18.891  0.00  0.00    -0.238 NA
ATOM      7  H   GLU A   1      -7.723  -8.871  18.718  0.00  0.00    +0.142 HD
ENDBRANCH   5   6
BRANCH   5   8
ATOM      8  CB  GLU A   1      -5.610  -7.257  19.266  0.00  0.00    +0.038 C 
BRANCH   8   9
ATOM      9  CG  GLU A   1      -5.252  -7.069  17.801  0.00  0.00    +0.116 C 
BRANCH   9  10
ATOM     10  CD  GLU A   1      -4.475  -5.782  17.584  0.00  0.00    +0.365 C 
ATOM     11  OE2 GLU A   1      -5.054  -4.699  17.838  0.00  0.00    -0.246 OA
ATOM     12  OE1 GLU A   1      -3.292  -5.861  17.169  0.00  0.00    -0.246 OA
ENDBRANCH   9  10
ENDBRANCH   8   9
ENDBRANCH   5   8
ENDBRANCH   1   5
BRANCH   3  13
ATOM     13  CA  HIS A   2      -7.707  -8.822  22.902  0.00  0.00    +0.143 C 
BRANCH  13  14
ATOM     14  C   HIS A   2      -8.009 -10.324  22.957  0.00  0.00    +0.227 C 
ATOM     15  O   HIS A   2      -8.328 -10.914  21.910  0.00  0.00    -0.286 OA
ENDBRANCH  13  14
BRANCH  13  16
ATOM     16  CB  HIS A   2      -8.939  -8.009  23.289  0.00  0.00    +0.075 C 
BRANCH  16  17
ATOM     17  CG  HIS A   2      -8.610  -6.552  23.470  0.00  0.00    +0.082 A 
ATOM     18  CD2 HIS A   2      -8.256  -5.830  24.550  0.00  0.00    +0.115 A 
ATOM     19  NE2 HIS A   2      -8.049  -4.541  24.149  0.00  0.00    -0.221 NA
ATOM     20  CE1 HIS A   2      -8.263  -4.464  22.841  0.00  0.00    +0.199 A 
ATOM     21  ND1 HIS A   2      -8.604  -5.678  22.407  0.00  0.00    -0.227 NA
ENDBRANCH  16  17
ENDBRANCH  13  16
ENDBRANCH   3  13
TORSDOF 9
REMARK  Name = ../refined-set-2016/3dcc/3dcc_pocket.pdb
REMARK  150 active torsions:
REMARK  status: ('A' for Active; 'I' for Inactive)
REMARK    1  A    between atoms: _1  and  _3
REMARK    2  A    between atoms: _3  and  _4
REMARK    3  A    between atoms: _3  and  _6
REMARK    4  A    between atoms: _6  and  _7
REMARK    5  A    between atoms: _17  and  _19
REMARK    6  A    between atoms: _19  and  _20
REMARK    7  A    between atoms: _19  and  _22
REMARK    8  A    between atoms: _22  and  _23
REMARK    9  A    between atoms: _28  and  _29
REMARK   10  A    between atoms: _31  and  _33
REMARK   11  A    between atoms: _33  and  _34
REMARK   12  A    between atoms: _33  and  _36
REMARK   13  A    between atoms: _36  and  _37
REMARK   14  A    between atoms: _40  and  _41
REMARK   15  A    between atoms: _46  and  _48
REMARK   16  A    between atoms: _48  and  _49
REMARK   17  A    between atoms: _48  and  _51
REMARK   18  A    between atoms: _51  and  _52
REMARK   19  A    between atoms: _57  and  _59
REMARK   20  A    between atoms: _59  and  _60
REMARK   21  A    between atoms: _59  and  _62
REMARK   22  A    between atoms: _62  and  _63
REMARK   23  A    between atoms: _68  and  _70
REMARK   24  A    between atoms: _70  and  _71
REMARK   25  A    between atoms: _70  and  _73
REMARK   26  A    between atoms: _73  and  _74
REMARK   27  A    between atoms: _76  and  _78
REMARK   28  A    between atoms: _78  and  _79
REMARK   29  A    between atoms: _78  and  _81
REMARK   30  A    between atoms: _81  and  _82
REMARK   31  A    between atoms: _82  and  _83
REMARK   32  A    between atoms: _88  and  _90
REMARK   33  A    between atoms: _90  and  _91
REMARK   34  A    between atoms: _90  and  _93
REMARK   35  A    between atoms: _93  and  _94
REMARK   36  A    between atoms: _97  and  _99
REMARK   37  A    between atoms: _99  and  _100
REMARK   38  A    between atoms: _99  and  _102
REMARK   39  A    between atoms: _102  and  _103
REMARK   40  A    between atoms: _103  and  _104
REMARK   41  A    between atoms: _109  and  _111
REMARK   42  A    between atoms: _111  and  _112
REMARK   43  A    between atoms: _111  and  _114
REMARK   44  A    between atoms: _114  and  _115
REMARK   45  A    between atoms: _121  and  _123
REMARK   46  A    between atoms: _134  and  _137
REMARK   47  A    between atoms: _137  and  _138
REMARK   48  A    between atoms: _146  and  _147
REMARK   49  A    between atoms: _155  and  _157
REMARK   50  A    between atoms: _157  and  _158
REMARK   51  A    between atoms: _157  and  _160
REMARK   52  A    between atoms: _160  and  _161
REMARK   53  A    between atoms: _161  and  _162
REMARK   54  A    between atoms: _165  and  _167
REMARK   55  A    between atoms: _167  and  _168
REMARK   56  A    between atoms: _167  and  _170
REMARK   57  A    between atoms: _170  and  _171
REMARK   58  A    between atoms: _176  and  _178
REMARK   59  A    between atoms: _178  and  _179
REMARK   60  A    between atoms: _178  and  _181
REMARK   61  A    between atoms: _181  and  _182
REMARK   62  A    between atoms: _182  and  _183
REMARK   63  A    between atoms: _186  and  _188
REMARK   64  A    between atoms: _188  and  _189
REMARK   65  A    between atoms: _188  and  _191
REMARK   66  A    between atoms: _191  and  _192
REMARK   67  A    between atoms: _195  and  _197
REMARK   68  A    between atoms: _197  and  _198
REMARK   69  A    between atoms: _197  and  _200
REMARK   70  A    between atoms: _200  and  _201
REMARK   71  A    between atoms: _202  and  ZN_417
REMARK   72  A    between atoms: _206  and  _208
REMARK   73  A    between atoms: _208  and  _209
REMARK   74  A    between atoms: _208  and  _211
REMARK   75  A    between atoms: _211  and  _212
REMARK   76  A    between atoms: _215  and  _217
REMARK   77  A    between atoms: _217  and  _218
REMARK   78  A    between atoms: _217  and  _220
REMARK   79  A    between atoms: _223  and  _225
REMARK   80  A    between atoms: _225  and  _226
REMARK   81  A    between atoms: _225  and  _228
REMARK   82  A    between atoms: _228  and  _229
REMARK   83  A    between atoms: _234  and  _236
REMARK   84  A    between atoms: _236  and  _237
REMARK   85  A    between atoms: _236  and  _239
REMARK   86  A    between atoms: _239  and  _240
REMARK   87  A    between atoms: _246  and  _248
REMARK   88  A    between atoms: _248  and  _249
REMARK   89  A    between atoms: _248  and  _251
REMARK   90  A    between atoms: _254  and  _256
REMARK   91  A    between atoms: _256  and  _257
REMARK   92  A    between atoms: _256  and  _259
REMARK   93  A    between atoms: _259  and  _260
REMARK   94  A    between atoms: _263  and  _265
REMARK   95  A    between atoms: _265  and  _266
REMARK   96  A    between atoms: _269  and  _271
REMARK   97  A    between atoms: _271  and  _272
REMARK   98  A    between atoms: _271  and  _274
REMARK   99  A    between atoms: _277  and  _279
REMARK  100  A    between atoms: _279  and  _280
REMARK  101  A    between atoms: _279  and  _282
REMARK  102  A    between atoms: _282  and  _283
REMARK  103  A    between atoms: _286  and  _288
REMARK  104  A    between atoms: _288  and  _289
REMARK  105  A    between atoms: _291  and  _293
REMARK  106  A    between atoms: _293  and  _294
REMARK  107  A    between atoms: _293  and  _296
REMARK  108  A    between atoms: _296  and  _297
REMARK  109  A    between atoms: _299  and  _301
REMARK  110  A    between atoms: _301  and  _302
REMARK  111  A    between atoms: _301  and  _304
REMARK  112  A    between atoms: _304  and  _305
REMARK  113  A    between atoms: _308  and  _310
REMARK  114  A    between atoms: _310  and  _311
REMARK  115  A    between atoms: _310  and  _313
REMARK  116  A    between atoms: _313  and  _314
REMARK  117  A    between atoms: _317  and  _319
REMARK  118  A    between atoms: _319  and  _320
REMARK  119  A    between atoms: _319  and  _322
REMARK  120  A    between atoms: _322  and  _323
REMARK  121  A    between atoms: _327  and  _328
REMARK  122  A    between atoms: _334  and  _335
REMARK  123  A    between atoms: _340  and  _342
REMARK  124  A    between atoms: _342  and  _343
REMARK  125  A    between atoms: _342  and  _345
REMARK  126  A    between atoms: _345  and  _346
REMARK  127  A    between atoms: _349  and  _351
REMARK  128  A    between atoms: _351  and  _352
REMARK  129  A    between atoms: _351  and  _354
REMARK  130  A    between atoms: _354  and  _355
REMARK  131  A    between atoms: _358  and  _360
REMARK  132  A    between atoms: _360  and  _361
REMARK  133  A    between atoms: _360  and  _363
REMARK  134  A    between atoms: _365  and  _367
REMARK  135  A    between atoms: _367  and  _368
REMARK  136  A    between atoms: _367  and  _370
REMARK  137  A    between atoms: _373  and  _375
REMARK  138  A    between atoms: _375  and  _376
REMARK  139  A    between atoms: _375  and  _378
REMARK  140  A    between atoms: _378  and  _379
REMARK  141  A    between atoms: _389  and  _391
REMARK  142  A    between atoms: _391  and  _392
REMARK  143  A    between atoms: _391  and  _394
REMARK  144  A    between atoms: _394  and  _395
REMARK  145  A    between atoms: _400  and  _402
REMARK  146  A    between atoms: _402  and  _403
REMARK  147  A    between atoms: _402  and  _405
REMARK  148  A    between atoms: _405  and  _406
REMARK  149  A    between atoms: _406  and  _407
REMARK  150  A    between atoms: _407  and  _408
REMARK                            x       y       z     vdW  Elec       q    Type
REMARK                         _______ _______ _______ _____ _____    ______ ____
ROOT
ATOM      1  CB  PHE A   1      -7.826  12.773  14.031  0.00  0.00    +0.051 C 
ENDROOT
BRANCH   1   2
ATOM      2  CG  PHE A   1      -7.273  11.390  14.375  0.00  0.00    -0.020 A 
ATOM      3  CD2 PHE A   1      -8.142  10.471  14.948  0.00  0.00    -0.004 A 
ATOM      4  CE2 PHE A   1      -7.665   9.214  15.263  0.00  0.00    -0.000 A 
ATOM      5  CZ  PHE A   1      -6.358   8.854  15.062  0.00  0.00    -0.000 A 
ATOM      6  CE1 PHE A   1      -5.472   9.753  14.484  0.00  0.00    -0.000 A 
ATOM      7  CD1 PHE A   1      -5.960  10.998  14.136  0.00  0.00    -0.004 A 
ENDBRANCH   1   2
BRANCH   1   8
ATOM      8  CA  PHE A   1      -7.690  13.750  15.220  0.00  0.00    +0.137 C 
BRANCH   8   9
ATOM      9  N   PHE A   1      -8.226  15.050  14.846  0.00  0.00    -0.239 NA
ATOM     10  H   PHE A   1      -8.519  15.206  13.860  0.00  0.00    +0.142 HD
ENDBRANCH   8   9
BRANCH   8  11
ATOM     11  C   PHE A   1      -6.250  13.838  15.726  0.00  0.00    +0.224 C 
ATOM     12  O   PHE A   1      -5.943  13.173  16.745  0.00  0.00    -0.287 OA
ENDBRANCH   8  11
ENDBRANCH   1   8
TORSDOF 4
REMARK  Name = ../refined-set-2016/3dcc/3dcc_pocket.pdb
REMARK  150 active torsions:
REMARK  status: ('A' for Active; 'I' for Inactive)
REMARK    1  A    between atoms: _1  and  _3
REMARK    2  A    between atoms: _3  and  _4
REMARK    3  A    between atoms: _3  and  _6
REMARK    4  A    between atoms: _6  and  _7
REMARK    5  A    between atoms: _17  and  _19
REMARK    6  A    between atoms: _19  and  _20
REMARK    7  A    between atoms: _19  and  _22
REMARK    8  A    between atoms: _22  and  _23
REMARK    9  A    between atoms: _28  and  _29
REMARK   10  A    between atoms: _31  and  _33
REMARK   11  A    between atoms: _33  and  _34
REMARK   12  A    between atoms: _33  and  _36
REMARK   13  A    between atoms: _36  and  _37
REMARK   14  A    between atoms: _40  and  _41
REMARK   15  A    between atoms: _46  and  _48
REMARK   16  A    between atoms: _48  and  _49
REMARK   17  A    between atoms: _48  and  _51
REMARK   18  A    between atoms: _51  and  _52
REMARK   19  A    between atoms: _57  and  _59
REMARK   20  A    between atoms: _59  and  _60
REMARK   21  A    between atoms: _59  and  _62
REMARK   22  A    between atoms: _62  and  _63
REMARK   23  A    between atoms: _68  and  _70
REMARK   24  A    between atoms: _70  and  _71
REMARK   25  A    between atoms: _70  and  _73
REMARK   26  A    between atoms: _73  and  _74
REMARK   27  A    between atoms: _76  and  _78
REMARK   28  A    between atoms: _78  and  _79
REMARK   29  A    between atoms: _78  and  _81
REMARK   30  A    between atoms: _81  and  _82
REMARK   31  A    between atoms: _82  and  _83
REMARK   32  A    between atoms: _88  and  _90
REMARK   33  A    between atoms: _90  and  _91
REMARK   34  A    between atoms: _90  and  _93
REMARK   35  A    between atoms: _93  and  _94
REMARK   36  A    between atoms: _97  and  _99
REMARK   37  A    between atoms: _99  and  _100
REMARK   38  A    between atoms: _99  and  _102
REMARK   39  A    between atoms: _102  and  _103
REMARK   40  A    between atoms: _103  and  _104
REMARK   41  A    between atoms: _109  and  _111
REMARK   42  A    between atoms: _111  and  _112
REMARK   43  A    between atoms: _111  and  _114
REMARK   44  A    between atoms: _114  and  _115
REMARK   45  A    between atoms: _121  and  _123
REMARK   46  A    between atoms: _134  and  _137
REMARK   47  A    between atoms: _137  and  _138
REMARK   48  A    between atoms: _146  and  _147
REMARK   49  A    between atoms: _155  and  _157
REMARK   50  A    between atoms: _157  and  _158
REMARK   51  A    between atoms: _157  and  _160
REMARK   52  A    between atoms: _160  and  _161
REMARK   53  A    between atoms: _161  and  _162
REMARK   54  A    between atoms: _165  and  _167
REMARK   55  A    between atoms: _167  and  _168
REMARK   56  A    between atoms: _167  and  _170
REMARK   57  A    between atoms: _170  and  _171
REMARK   58  A    between atoms: _176  and  _178
REMARK   59  A    between atoms: _178  and  _179
REMARK   60  A    between atoms: _178  and  _181
REMARK   61  A    between atoms: _181  and  _182
REMARK   62  A    between atoms: _182  and  _183
REMARK   63  A    between atoms: _186  and  _188
REMARK   64  A    between atoms: _188  and  _189
REMARK   65  A    between atoms: _188  and  _191
REMARK   66  A    between atoms: _191  and  _192
REMARK   67  A    between atoms: _195  and  _197
REMARK   68  A    between atoms: _197  and  _198
REMARK   69  A    between atoms: _197  and  _200
REMARK   70  A    between atoms: _200  and  _201
REMARK   71  A    between atoms: _202  and  ZN_417
REMARK   72  A    between atoms: _206  and  _208
REMARK   73  A    between atoms: _208  and  _209
REMARK   74  A    between atoms: _208  and  _211
REMARK   75  A    between atoms: _211  and  _212
REMARK   76  A    between atoms: _215  and  _217
REMARK   77  A    between atoms: _217  and  _218
REMARK   78  A    between atoms: _217  and  _220
REMARK   79  A    between atoms: _223  and  _225
REMARK   80  A    between atoms: _225  and  _226
REMARK   81  A    between atoms: _225  and  _228
REMARK   82  A    between atoms: _228  and  _229
REMARK   83  A    between atoms: _234  and  _236
REMARK   84  A    between atoms: _236  and  _237
REMARK   85  A    between atoms: _236  and  _239
REMARK   86  A    between atoms: _239  and  _240
REMARK   87  A    between atoms: _246  and  _248
REMARK   88  A    between atoms: _248  and  _249
REMARK   89  A    between atoms: _248  and  _251
REMARK   90  A    between atoms: _254  and  _256
REMARK   91  A    between atoms: _256  and  _257
REMARK   92  A    between atoms: _256  and  _259
REMARK   93  A    between atoms: _259  and  _260
REMARK   94  A    between atoms: _263  and  _265
REMARK   95  A    between atoms: _265  and  _266
REMARK   96  A    between atoms: _269  and  _271
REMARK   97  A    between atoms: _271  and  _272
REMARK   98  A    between atoms: _271  and  _274
REMARK   99  A    between atoms: _277  and  _279
REMARK  100  A    between atoms: _279  and  _280
REMARK  101  A    between atoms: _279  and  _282
REMARK  102  A    between atoms: _282  and  _283
REMARK  103  A    between atoms: _286  and  _288
REMARK  104  A    between atoms: _288  and  _289
REMARK  105  A    between atoms: _291  and  _293
REMARK  106  A    between atoms: _293  and  _294
REMARK  107  A    between atoms: _293  and  _296
REMARK  108  A    between atoms: _296  and  _297
REMARK  109  A    between atoms: _299  and  _301
REMARK  110  A    between atoms: _301  and  _302
REMARK  111  A    between atoms: _301  and  _304
REMARK  112  A    between atoms: _304  and  _305
REMARK  113  A    between atoms: _308  and  _310
REMARK  114  A    between atoms: _310  and  _311
REMARK  115  A    between atoms: _310  and  _313
REMARK  116  A    between atoms: _313  and  _314
REMARK  117  A    between atoms: _317  and  _319
REMARK  118  A    between atoms: _319  and  _320
REMARK  119  A    between atoms: _319  and  _322
REMARK  120  A    between atoms: _322  and  _323
REMARK  121  A    between atoms: _327  and  _328
REMARK  122  A    between atoms: _334  and  _335
REMARK  123  A    between atoms: _340  and  _342
REMARK  124  A    between atoms: _342  and  _343
REMARK  125  A    between atoms: _342  and  _345
REMARK  126  A    between atoms: _345  and  _346
REMARK  127  A    between atoms: _349  and  _351
REMARK  128  A    between atoms: _351  and  _352
REMARK  129  A    between atoms: _351  and  _354
REMARK  130  A    between atoms: _354  and  _355
REMARK  131  A    between atoms: _358  and  _360
REMARK  132  A    between atoms: _360  and  _361
REMARK  133  A    between atoms: _360  and  _363
REMARK  134  A    between atoms: _365  and  _367
REMARK  135  A    between atoms: _367  and  _368
REMARK  136  A    between atoms: _367  and  _370
REMARK  137  A    between atoms: _373  and  _375
REMARK  138  A    between atoms: _375  and  _376
REMARK  139  A    between atoms: _375  and  _378
REMARK  140  A    between atoms: _378  and  _379
REMARK  141  A    between atoms: _389  and  _391
REMARK  142  A    between atoms: _391  and  _392
REMARK  143  A    between atoms: _391  and  _394
REMARK  144  A    between atoms: _394  and  _395
REMARK  145  A    between atoms: _400  and  _402
REMARK  146  A    between atoms: _402  and  _403
REMARK  147  A    between atoms: _402  and  _405
REMARK  148  A    between atoms: _405  and  _406
REMARK  149  A    between atoms: _406  and  _407
REMARK  150  A    between atoms: _407  and  _408
REMARK                            x       y       z     vdW  Elec       q    Type
REMARK                         _______ _______ _______ _____ _____    ______ ____
ROOT
ATOM      1  CA  VAL A   1      -4.034  11.321  19.977  0.00  0.00    +0.133 C 
ENDROOT
BRANCH   1   2
ATOM      2  CB  VAL A   1      -3.334  10.730  18.741  0.00  0.00    +0.023 C 
ATOM      3  CG2 VAL A   1      -2.526  11.775  17.984  0.00  0.00    +0.002 C 
ATOM      4  CG1 VAL A   1      -4.371  10.107  17.815  0.00  0.00    +0.002 C 
ENDBRANCH   1   2
BRANCH   1   5
ATOM      5  N   VAL A   1      -4.949  12.426  19.624  0.00  0.00    -0.239 NA
ATOM      6  H   VAL A   1      -4.891  12.867  18.684  0.00  0.00    +0.142 HD
ENDBRANCH   1   5
BRANCH   1   7
ATOM      7  C   VAL A   1      -2.987  11.740  20.991  0.00  0.00    +0.224 C 
ATOM      8  O   VAL A   1      -2.284  10.888  21.559  0.00  0.00    -0.287 OA
ENDBRANCH   1   7
TORSDOF 3
REMARK  Name = ../refined-set-2016/3dcc/3dcc_pocket.pdb
REMARK  150 active torsions:
REMARK  status: ('A' for Active; 'I' for Inactive)
REMARK    1  A    between atoms: _1  and  _3
REMARK    2  A    between atoms: _3  and  _4
REMARK    3  A    between atoms: _3  and  _6
REMARK    4  A    between atoms: _6  and  _7
REMARK    5  A    between atoms: _17  and  _19
REMARK    6  A    between atoms: _19  and  _20
REMARK    7  A    between atoms: _19  and  _22
REMARK    8  A    between atoms: _22  and  _23
REMARK    9  A    between atoms: _28  and  _29
REMARK   10  A    between atoms: _31  and  _33
REMARK   11  A    between atoms: _33  and  _34
REMARK   12  A    between atoms: _33  and  _36
REMARK   13  A    between atoms: _36  and  _37
REMARK   14  A    between atoms: _40  and  _41
REMARK   15  A    between atoms: _46  and  _48
REMARK   16  A    between atoms: _48  and  _49
REMARK   17  A    between atoms: _48  and  _51
REMARK   18  A    between atoms: _51  and  _52
REMARK   19  A    between atoms: _57  and  _59
REMARK   20  A    between atoms: _59  and  _60
REMARK   21  A    between atoms: _59  and  _62
REMARK   22  A    between atoms: _62  and  _63
REMARK   23  A    between atoms: _68  and  _70
REMARK   24  A    between atoms: _70  and  _71
REMARK   25  A    between atoms: _70  and  _73
REMARK   26  A    between atoms: _73  and  _74
REMARK   27  A    between atoms: _76  and  _78
REMARK   28  A    between atoms: _78  and  _79
REMARK   29  A    between atoms: _78  and  _81
REMARK   30  A    between atoms: _81  and  _82
REMARK   31  A    between atoms: _82  and  _83
REMARK   32  A    between atoms: _88  and  _90
REMARK   33  A    between atoms: _90  and  _91
REMARK   34  A    between atoms: _90  and  _93
REMARK   35  A    between atoms: _93  and  _94
REMARK   36  A    between atoms: _97  and  _99
REMARK   37  A    between atoms: _99  and  _100
REMARK   38  A    between atoms: _99  and  _102
REMARK   39  A    between atoms: _102  and  _103
REMARK   40  A    between atoms: _103  and  _104
REMARK   41  A    between atoms: _109  and  _111
REMARK   42  A    between atoms: _111  and  _112
REMARK   43  A    between atoms: _111  and  _114
REMARK   44  A    between atoms: _114  and  _115
REMARK   45  A    between atoms: _121  and  _123
REMARK   46  A    between atoms: _134  and  _137
REMARK   47  A    between atoms: _137  and  _138
REMARK   48  A    between atoms: _146  and  _147
REMARK   49  A    between atoms: _155  and  _157
REMARK   50  A    between atoms: _157  and  _158
REMARK   51  A    between atoms: _157  and  _160
REMARK   52  A    between atoms: _160  and  _161
REMARK   53  A    between atoms: _161  and  _162
REMARK   54  A    between atoms: _165  and  _167
REMARK   55  A    between atoms: _167  and  _168
REMARK   56  A    between atoms: _167  and  _170
REMARK   57  A    between atoms: _170  and  _171
REMARK   58  A    between atoms: _176  and  _178
REMARK   59  A    between atoms: _178  and  _179
REMARK   60  A    between atoms: _178  and  _181
REMARK   61  A    between atoms: _181  and  _182
REMARK   62  A    between atoms: _182  and  _183
REMARK   63  A    between atoms: _186  and  _188
REMARK   64  A    between atoms: _188  and  _189
REMARK   65  A    between atoms: _188  and  _191
REMARK   66  A    between atoms: _191  and  _192
REMARK   67  A    between atoms: _195  and  _197
REMARK   68  A    between atoms: _197  and  _198
REMARK   69  A    between atoms: _197  and  _200
REMARK   70  A    between atoms: _200  and  _201
REMARK   71  A    between atoms: _202  and  ZN_417
REMARK   72  A    between atoms: _206  and  _208
REMARK   73  A    between atoms: _208  and  _209
REMARK   74  A    between atoms: _208  and  _211
REMARK   75  A    between atoms: _211  and  _212
REMARK   76  A    between atoms: _215  and  _217
REMARK   77  A    between atoms: _217  and  _218
REMARK   78  A    between atoms: _217  and  _220
REMARK   79  A    between atoms: _223  and  _225
REMARK   80  A    between atoms: _225  and  _226
REMARK   81  A    between atoms: _225  and  _228
REMARK   82  A    between atoms: _228  and  _229
REMARK   83  A    between atoms: _234  and  _236
REMARK   84  A    between atoms: _236  and  _237
REMARK   85  A    between atoms: _236  and  _239
REMARK   86  A    between atoms: _239  and  _240
REMARK   87  A    between atoms: _246  and  _248
REMARK   88  A    between atoms: _248  and  _249
REMARK   89  A    between atoms: _248  and  _251
REMARK   90  A    between atoms: _254  and  _256
REMARK   91  A    between atoms: _256  and  _257
REMARK   92  A    between atoms: _256  and  _259
REMARK   93  A    between atoms: _259  and  _260
REMARK   94  A    between atoms: _263  and  _265
REMARK   95  A    between atoms: _265  and  _266
REMARK   96  A    between atoms: _269  and  _271
REMARK   97  A    between atoms: _271  and  _272
REMARK   98  A    between atoms: _271  and  _274
REMARK   99  A    between atoms: _277  and  _279
REMARK  100  A    between atoms: _279  and  _280
REMARK  101  A    between atoms: _279  and  _282
REMARK  102  A    between atoms: _282  and  _283
REMARK  103  A    between atoms: _286  and  _288
REMARK  104  A    between atoms: _288  and  _289
REMARK  105  A    between atoms: _291  and  _293
REMARK  106  A    between atoms: _293  and  _294
REMARK  107  A    between atoms: _293  and  _296
REMARK  108  A    between atoms: _296  and  _297
REMARK  109  A    between atoms: _299  and  _301
REMARK  110  A    between atoms: _301  and  _302
REMARK  111  A    between atoms: _301  and  _304
REMARK  112  A    between atoms: _304  and  _305
REMARK  113  A    between atoms: _308  and  _310
REMARK  114  A    between atoms: _310  and  _311
REMARK  115  A    between atoms: _310  and  _313
REMARK  116  A    between atoms: _313  and  _314
REMARK  117  A    between atoms: _317  and  _319
REMARK  118  A    between atoms: _319  and  _320
REMARK  119  A    between atoms: _319  and  _322
REMARK  120  A    between atoms: _322  and  _323
REMARK  121  A    between atoms: _327  and  _328
REMARK  122  A    between atoms: _334  and  _335
REMARK  123  A    between atoms: _340  and  _342
REMARK  124  A    between atoms: _342  and  _343
REMARK  125  A    between atoms: _342  and  _345
REMARK  126  A    between atoms: _345  and  _346
REMARK  127  A    between atoms: _349  and  _351
REMARK  128  A    between atoms: _351  and  _352
REMARK  129  A    between atoms: _351  and  _354
REMARK  130  A    between atoms: _354  and  _355
REMARK  131  A    between atoms: _358  and  _360
REMARK  132  A    between atoms: _360  and  _361
REMARK  133  A    between atoms: _360  and  _363
REMARK  134  A    between atoms: _365  and  _367
REMARK  135  A    between atoms: _367  and  _368
REMARK  136  A    between atoms: _367  and  _370
REMARK  137  A    between atoms: _373  and  _375
REMARK  138  A    between atoms: _375  and  _376
REMARK  139  A    between atoms: _375  and  _378
REMARK  140  A    between atoms: _378  and  _379
REMARK  141  A    between atoms: _389  and  _391
REMARK  142  A    between atoms: _391  and  _392
REMARK  143  A    between atoms: _391  and  _394
REMARK  144  A    between atoms: _394  and  _395
REMARK  145  A    between atoms: _400  and  _402
REMARK  146  A    between atoms: _402  and  _403
REMARK  147  A    between atoms: _402  and  _405
REMARK  148  A    between atoms: _405  and  _406
REMARK  149  A    between atoms: _406  and  _407
REMARK  150  A    between atoms: _407  and  _408
REMARK                            x       y       z     vdW  Elec       q    Type
REMARK                         _______ _______ _______ _____ _____    ______ ____
ROOT
ATOM      1  C   ALA A   2     -12.501   4.641  20.880  0.00  0.00    +0.241 C 
ATOM      2  N   VAL A   3     -12.038   3.414  21.179  0.00  0.00    -0.297 N 
ATOM      3  H   VAL A   3     -11.651   3.197  22.120  0.00  0.00    +0.150 HD
ATOM      4  O   ALA A   2     -12.920   4.905  19.754  0.00  0.00    -0.273 OA
ENDROOT
BRANCH   1   5
ATOM      5  CA  ALA A   2     -12.397   5.637  22.037  0.00  0.00    +0.149 C 
ATOM      6  CB  ALA A   2     -13.718   6.103  22.570  0.00  0.00    +0.031 C 
BRANCH   5   9
ATOM      7  C   LEU A   1     -10.618   7.278  22.294  0.00  0.00    +0.238 C 
ATOM      8  O   LEU A   1     -10.439   6.992  23.467  0.00  0.00    -0.274 OA
ATOM      9  N   ALA A   2     -11.605   6.770  21.560  0.00  0.00    -0.297 N 
ATOM     10  H   ALA A   2     -11.817   7.186  20.631  0.00  0.00    +0.150 HD
BRANCH   7  11
ATOM     11  CA  LEU A   1      -9.753   8.247  21.489  0.00  0.00    +0.145 C 
BRANCH  11  12
ATOM     12  N   LEU A   1      -9.147   9.222  22.376  0.00  0.00    -0.238 NA
ATOM     13  H   LEU A   1      -8.579   8.892  23.182  0.00  0.00    +0.142 HD
ENDBRANCH  11  12
BRANCH  11  14
ATOM     14  CB  LEU A   1      -8.718   7.453  20.698  0.00  0.00    +0.026 C 
BRANCH  14  15
ATOM     15  CG  LEU A   1      -7.757   8.088  19.707  0.00  0.00    +0.002 C 
ATOM     16  CD2 LEU A   1      -8.333   9.265  18.935  0.00  0.00    +0.000 C 
ATOM     17  CD1 LEU A   1      -7.251   7.050  18.689  0.00  0.00    +0.000 C 
ENDBRANCH  14  15
ENDBRANCH  11  14
ENDBRANCH   7  11
ENDBRANCH   5   9
ENDBRANCH   1   5
BRANCH   2  18
ATOM     18  CA  VAL A   3     -12.100   2.401  20.133  0.00  0.00    +0.149 C 
BRANCH  18  19
ATOM     19  C   VAL A   3     -13.079   1.312  20.620  0.00  0.00    +0.241 C 
ATOM     20  O   VAL A   3     -12.868   0.823  21.731  0.00  0.00    -0.273 OA
ATOM     21  N   LEU A   4     -14.069   1.029  19.817  0.00  0.00    -0.298 N 
ATOM     22  H   LEU A   4     -14.190   1.628  18.975  0.00  0.00    +0.150 HD
BRANCH  21  23
ATOM     23  CA  LEU A   4     -15.020  -0.063  20.009  0.00  0.00    +0.137 C 
BRANCH  23  24
ATOM     24  C   LEU A   4     -14.454  -1.330  19.367  0.00  0.00    +0.227 C 
ATOM     25  O   LEU A   4     -14.184  -1.346  18.162  0.00  0.00    -0.286 OA
ENDBRANCH  23  24
BRANCH  23  26
ATOM     26  CB  LEU A   4     -16.349   0.361  19.412  0.00  0.00    +0.028 C 
BRANCH  26  27
ATOM     27  CG  LEU A   4     -17.697  -0.190  19.814  0.00  0.00    +0.002 C 
ATOM     28  CD2 LEU A   4     -17.964  -0.025  21.296  0.00  0.00    +0.000 C 
ATOM     29  CD1 LEU A   4     -18.801   0.532  19.020  0.00  0.00    +0.000 C 
ENDBRANCH  26  27
ENDBRANCH  23  26
ENDBRANCH  21  23
ENDBRANCH  18  19
BRANCH  18  30
ATOM     30  CB  VAL A   3     -10.739   1.761  19.830  0.00  0.00    +0.027 C 
ATOM     31  CG2 VAL A   3      -9.737   2.826  19.381  0.00  0.00    +0.002 C 
ATOM     32  CG1 VAL A   3     -10.865   0.659  18.771  0.00  0.00    +0.002 C 
ENDBRANCH  18  30
ENDBRANCH   2  18
TORSDOF 13
REMARK  Name = ../refined-set-2016/3dcc/3dcc_pocket.pdb
REMARK  150 active torsions:
REMARK  status: ('A' for Active; 'I' for Inactive)
REMARK    1  A    between atoms: _1  and  _3
REMARK    2  A    between atoms: _3  and  _4
REMARK    3  A    between atoms: _3  and  _6
REMARK    4  A    between atoms: _6  and  _7
REMARK    5  A    between atoms: _17  and  _19
REMARK    6  A    between atoms: _19  and  _20
REMARK    7  A    between atoms: _19  and  _22
REMARK    8  A    between atoms: _22  and  _23
REMARK    9  A    between atoms: _28  and  _29
REMARK   10  A    between atoms: _31  and  _33
REMARK   11  A    between atoms: _33  and  _34
REMARK   12  A    between atoms: _33  and  _36
REMARK   13  A    between atoms: _36  and  _37
REMARK   14  A    between atoms: _40  and  _41
REMARK   15  A    between atoms: _46  and  _48
REMARK   16  A    between atoms: _48  and  _49
REMARK   17  A    between atoms: _48  and  _51
REMARK   18  A    between atoms: _51  and  _52
REMARK   19  A    between atoms: _57  and  _59
REMARK   20  A    between atoms: _59  and  _60
REMARK   21  A    between atoms: _59  and  _62
REMARK   22  A    between atoms: _62  and  _63
REMARK   23  A    between atoms: _68  and  _70
REMARK   24  A    between atoms: _70  and  _71
REMARK   25  A    between atoms: _70  and  _73
REMARK   26  A    between atoms: _73  and  _74
REMARK   27  A    between atoms: _76  and  _78
REMARK   28  A    between atoms: _78  and  _79
REMARK   29  A    between atoms: _78  and  _81
REMARK   30  A    between atoms: _81  and  _82
REMARK   31  A    between atoms: _82  and  _83
REMARK   32  A    between atoms: _88  and  _90
REMARK   33  A    between atoms: _90  and  _91
REMARK   34  A    between atoms: _90  and  _93
REMARK   35  A    between atoms: _93  and  _94
REMARK   36  A    between atoms: _97  and  _99
REMARK   37  A    between atoms: _99  and  _100
REMARK   38  A    between atoms: _99  and  _102
REMARK   39  A    between atoms: _102  and  _103
REMARK   40  A    between atoms: _103  and  _104
REMARK   41  A    between atoms: _109  and  _111
REMARK   42  A    between atoms: _111  and  _112
REMARK   43  A    between atoms: _111  and  _114
REMARK   44  A    between atoms: _114  and  _115
REMARK   45  A    between atoms: _121  and  _123
REMARK   46  A    between atoms: _134  and  _137
REMARK   47  A    between atoms: _137  and  _138
REMARK   48  A    between atoms: _146  and  _147
REMARK   49  A    between atoms: _155  and  _157
REMARK   50  A    between atoms: _157  and  _158
REMARK   51  A    between atoms: _157  and  _160
REMARK   52  A    between atoms: _160  and  _161
REMARK   53  A    between atoms: _161  and  _162
REMARK   54  A    between atoms: _165  and  _167
REMARK   55  A    between atoms: _167  and  _168
REMARK   56  A    between atoms: _167  and  _170
REMARK   57  A    between atoms: _170  and  _171
REMARK   58  A    between atoms: _176  and  _178
REMARK   59  A    between atoms: _178  and  _179
REMARK   60  A    between atoms: _178  and  _181
REMARK   61  A    between atoms: _181  and  _182
REMARK   62  A    between atoms: _182  and  _183
REMARK   63  A    between atoms: _186  and  _188
REMARK   64  A    between atoms: _188  and  _189
REMARK   65  A    between atoms: _188  and  _191
REMARK   66  A    between atoms: _191  and  _192
REMARK   67  A    between atoms: _195  and  _197
REMARK   68  A    between atoms: _197  and  _198
REMARK   69  A    between atoms: _197  and  _200
REMARK   70  A    between atoms: _200  and  _201
REMARK   71  A    between atoms: _202  and  ZN_417
REMARK   72  A    between atoms: _206  and  _208
REMARK   73  A    between atoms: _208  and  _209
REMARK   74  A    between atoms: _208  and  _211
REMARK   75  A    between atoms: _211  and  _212
REMARK   76  A    between atoms: _215  and  _217
REMARK   77  A    between atoms: _217  and  _218
REMARK   78  A    between atoms: _217  and  _220
REMARK   79  A    between atoms: _223  and  _225
REMARK   80  A    between atoms: _225  and  _226
REMARK   81  A    between atoms: _225  and  _228
REMARK   82  A    between atoms: _228  and  _229
REMARK   83  A    between atoms: _234  and  _236
REMARK   84  A    between atoms: _236  and  _237
REMARK   85  A    between atoms: _236  and  _239
REMARK   86  A    between atoms: _239  and  _240
REMARK   87  A    between atoms: _246  and  _248
REMARK   88  A    between atoms: _248  and  _249
REMARK   89  A    between atoms: _248  and  _251
REMARK   90  A    between atoms: _254  and  _256
REMARK   91  A    between atoms: _256  and  _257
REMARK   92  A    between atoms: _256  and  _259
REMARK   93  A    between atoms: _259  and  _260
REMARK   94  A    between atoms: _263  and  _265
REMARK   95  A    between atoms: _265  and  _266
REMARK   96  A    between atoms: _269  and  _271
REMARK   97  A    between atoms: _271  and  _272
REMARK   98  A    between atoms: _271  and  _274
REMARK   99  A    between atoms: _277  and  _279
REMARK  100  A    between atoms: _279  and  _280
REMARK  101  A    between atoms: _279  and  _282
REMARK  102  A    between atoms: _282  and  _283
REMARK  103  A    between atoms: _286  and  _288
REMARK  104  A    between atoms: _288  and  _289
REMARK  105  A    between atoms: _291  and  _293
REMARK  106  A    between atoms: _293  and  _294
REMARK  107  A    between atoms: _293  and  _296
REMARK  108  A    between atoms: _296  and  _297
REMARK  109  A    between atoms: _299  and  _301
REMARK  110  A    between atoms: _301  and  _302
REMARK  111  A    between atoms: _301  and  _304
REMARK  112  A    between atoms: _304  and  _305
REMARK  113  A    between atoms: _308  and  _310
REMARK  114  A    between atoms: _310  and  _311
REMARK  115  A    between atoms: _310  and  _313
REMARK  116  A    between atoms: _313  and  _314
REMARK  117  A    between atoms: _317  and  _319
REMARK  118  A    between atoms: _319  and  _320
REMARK  119  A    between atoms: _319  and  _322
REMARK  120  A    between atoms: _322  and  _323
REMARK  121  A    between atoms: _327  and  _328
REMARK  122  A    between atoms: _334  and  _335
REMARK  123  A    between atoms: _340  and  _342
REMARK  124  A    between atoms: _342  and  _343
REMARK  125  A    between atoms: _342  and  _345
REMARK  126  A    between atoms: _345  and  _346
REMARK  127  A    between atoms: _349  and  _351
REMARK  128  A    between atoms: _351  and  _352
REMARK  129  A    between atoms: _351  and  _354
REMARK  130  A    between atoms: _354  and  _355
REMARK  131  A    between atoms: _358  and  _360
REMARK  132  A    between atoms: _360  and  _361
REMARK  133  A    between atoms: _360  and  _363
REMARK  134  A    between atoms: _365  and  _367
REMARK  135  A    between atoms: _367  and  _368
REMARK  136  A    between atoms: _367  and  _370
REMARK  137  A    between atoms: _373  and  _375
REMARK  138  A    between atoms: _375  and  _376
REMARK  139  A    between atoms: _375  and  _378
REMARK  140  A    between atoms: _378  and  _379
REMARK  141  A    between atoms: _389  and  _391
REMARK  142  A    between atoms: _391  and  _392
REMARK  143  A    between atoms: _391  and  _394
REMARK  144  A    between atoms: _394  and  _395
REMARK  145  A    between atoms: _400  and  _402
REMARK  146  A    between atoms: _402  and  _403
REMARK  147  A    between atoms: _402  and  _405
REMARK  148  A    between atoms: _405  and  _406
REMARK  149  A    between atoms: _406  and  _407
REMARK  150  A    between atoms: _407  and  _408
REMARK                            x       y       z     vdW  Elec       q    Type
REMARK                         _______ _______ _______ _____ _____    ______ ____
ROOT
ATOM      1  CA  THR A   5       0.092  -0.182  16.250  0.00  0.00    +0.176 C 
ENDROOT
BRANCH   1   2
ATOM      2  C   THR A   5       0.864   1.109  16.556  0.00  0.00    +0.246 C 
ATOM      3  O   THR A   5       0.339   2.047  17.189  0.00  0.00    -0.273 OA
ATOM      4  N   PRO A   6       2.102   1.155  16.081  0.00  0.00    -0.272 N 
ATOM      5  CA  PRO A   6       2.848   2.424  16.188  0.00  0.00    +0.152 C 
ATOM      6  CB  PRO A   6       4.095   2.129  15.347  0.00  0.00    +0.031 C 
ATOM      7  CG  PRO A   6       4.305   0.651  15.578  0.00  0.00    +0.024 C 
ATOM      8  CD  PRO A   6       2.899   0.094  15.459  0.00  0.00    +0.094 C 
BRANCH   5   9
ATOM      9  C   PRO A   6       2.027   3.561  15.605  0.00  0.00    +0.244 C 
ATOM     10  N   PRO A   7       2.048   4.713  16.246  0.00  0.00    -0.272 N 
ATOM     11  CA  PRO A   7       2.992   4.977  17.333  0.00  0.00    +0.152 C 
ATOM     12  CB  PRO A   7       3.098   6.521  17.212  0.00  0.00    +0.031 C 
ATOM     13  CG  PRO A   7       1.734   6.944  16.786  0.00  0.00    +0.024 C 
ATOM     14  CD  PRO A   7       1.182   5.856  15.917  0.00  0.00    +0.094 C 
ATOM     15  O   PRO A   6       1.323   3.389  14.609  0.00  0.00    -0.273 OA
BRANCH  11  16
ATOM     16  C   PRO A   7       2.595   4.583  18.742  0.00  0.00    +0.241 C 
ATOM     17  O   PRO A   7       3.266   5.014  19.687  0.00  0.00    -0.273 OA
ATOM     18  N   LEU A   8       1.576   3.749  18.970  0.00  0.00    -0.297 N 
ATOM     19  H   LEU A   8       0.925   3.527  18.190  0.00  0.00    +0.150 HD
BRANCH  18  20
ATOM     20  CA  LEU A   8       1.345   3.138  20.279  0.00  0.00    +0.149 C 
BRANCH  20  21
ATOM     21  C   LEU A   8       0.993   4.134  21.379  0.00  0.00    +0.241 C 
ATOM     22  O   LEU A   8       1.174   3.865  22.577  0.00  0.00    -0.273 OA
ATOM     23  N   LEU A   9       0.477   5.300  20.976  0.00  0.00    -0.298 N 
ATOM     24  H   LEU A   9       0.305   5.468  19.964  0.00  0.00    +0.150 HD
BRANCH  23  25
ATOM     25  CA  LEU A   9       0.154   6.339  21.952  0.00  0.00    +0.137 C 
BRANCH  25  26
ATOM     26  C   LEU A   9      -0.849   5.863  22.981  0.00  0.00    +0.227 C 
ATOM     27  O   LEU A   9      -1.811   5.146  22.659  0.00  0.00    -0.286 OA
ENDBRANCH  25  26
BRANCH  25  28
ATOM     28  CB  LEU A   9      -0.376   7.583  21.208  0.00  0.00    +0.028 C 
BRANCH  28  29
ATOM     29  CG  LEU A   9       0.628   8.142  20.178  0.00  0.00    +0.002 C 
ATOM     30  CD2 LEU A   9       1.893   8.570  20.892  0.00  0.00    +0.000 C 
ATOM     31  CD1 LEU A   9       0.050   9.299  19.385  0.00  0.00    +0.000 C 
ENDBRANCH  28  29
ENDBRANCH  25  28
ENDBRANCH  23  25
ENDBRANCH  20  21
BRANCH  20  32
ATOM     32  CB  LEU A   8       2.578   2.303  20.679  0.00  0.00    +0.029 C 
BRANCH  32  33
ATOM     33  CG  LEU A   8       2.951   1.198  19.672  0.00  0.00    +0.002 C 
ATOM     34  CD2 LEU A   8       4.280   0.565  20.058  0.00  0.00    +0.000 C 
ATOM     35  CD1 LEU A   8       1.848   0.164  19.573  0.00  0.00    +0.000 C 
ENDBRANCH  32  33
ENDBRANCH  20  32
ENDBRANCH  18  20
ENDBRANCH  11  16
ENDBRANCH   5   9
ENDBRANCH   1   2
BRANCH   1  38
ATOM     36  C   THR A   4      -1.101  -1.361  17.992  0.00  0.00    +0.243 C 
ATOM     37  O   THR A   4      -0.425  -2.379  17.847  0.00  0.00    -0.273 OA
ATOM     38  N   THR A   5      -1.022  -0.304  17.181  0.00  0.00    -0.295 N 
ATOM     39  H   THR A   5      -1.756   0.432  17.214  0.00  0.00    +0.150 HD
BRANCH  36  40
ATOM     40  CA  THR A   4      -2.085  -1.284  19.147  0.00  0.00    +0.176 C 
BRANCH  40  43
ATOM     41  C   LEU A   3      -2.371   0.937  20.019  0.00  0.00    +0.241 C 
ATOM     42  O   LEU A   3      -1.403   0.764  20.771  0.00  0.00    -0.273 OA
ATOM     43  N   THR A   4      -2.797   0.005  19.159  0.00  0.00    -0.295 N 
ATOM     44  H   THR A   4      -3.600   0.184  18.523  0.00  0.00    +0.150 HD
BRANCH  41  45
ATOM     45  CA  LEU A   3      -3.145   2.261  20.001  0.00  0.00    +0.149 C 
BRANCH  45  48
ATOM     46  C   SER A   2      -3.619   2.059  22.390  0.00  0.00    +0.243 C 
ATOM     47  O   SER A   2      -4.379   1.115  22.177  0.00  0.00    -0.273 OA
ATOM     48  N   LEU A   3      -3.126   2.769  21.365  0.00  0.00    -0.297 N 
ATOM     49  H   LEU A   3      -2.719   3.708  21.549  0.00  0.00    +0.150 HD
BRANCH  46  50
ATOM     50  CA  SER A   2      -3.211   2.466  23.801  0.00  0.00    +0.178 C 
BRANCH  50  53
ATOM     51  C   GLY A   1      -4.433   2.476  25.925  0.00  0.00    +0.240 C 
ATOM     52  O   GLY A   1      -4.424   3.713  26.038  0.00  0.00    -0.274 OA
ATOM     53  N   SER A   2      -3.941   1.816  24.884  0.00  0.00    -0.295 N 
ATOM     54  H   SER A   2      -4.083   0.787  24.838  0.00  0.00    +0.150 HD
BRANCH  51  55
ATOM     55  CA  GLY A   1      -5.057   1.631  27.022  0.00  0.00    +0.169 C 
BRANCH  55  56
ATOM     56  N   GLY A   1      -6.166   2.337  27.676  0.00  0.00    -0.236 NA
ATOM     57  H   GLY A   1      -6.733   3.053  27.179  0.00  0.00    +0.142 HD
ENDBRANCH  55  56
ENDBRANCH  51  55
ENDBRANCH  50  53
BRANCH  50  58
ATOM     58  CB  SER A   2      -1.722   2.107  23.968  0.00  0.00    +0.166 C 
BRANCH  58  59
ATOM     59  OG  SER A   2      -1.522   0.766  23.464  0.00  0.00    -0.380 OA
ATOM     60  H   SER A   2      -1.776   0.733  22.508  0.00  0.00    +0.211 HD
ENDBRANCH  58  59
ENDBRANCH  50  58
ENDBRANCH  46  50
ENDBRANCH  45  48
BRANCH  45  61
ATOM     61  CB  LEU A   3      -2.483   3.195  19.002  0.00  0.00    +0.029 C 
BRANCH  61  62
ATOM     62  CG  LEU A   3      -3.007   4.646  19.047  0.00  0.00    +0.002 C 
ATOM     63  CD2 LEU A   3      -4.472   4.673  18.674  0.00  0.00    +0.000 C 
ATOM     64  CD1 LEU A   3      -2.204   5.562  18.133  0.00  0.00    +0.000 C 
ENDBRANCH  61  62
ENDBRANCH  45  61
ENDBRANCH  41  45
ENDBRANCH  40  43
BRANCH  40  65
ATOM     65  CB  THR A   4      -3.040  -2.502  19.060  0.00  0.00    +0.137 C 
ATOM     66  CG2 THR A   4      -4.077  -2.426  20.169  0.00  0.00    +0.034 C 
BRANCH  65  67
ATOM     67  OG1 THR A   4      -3.686  -2.466  17.800  0.00  0.00    -0.382 OA
ATOM     68  HG1 THR A   4      -4.302  -3.237  17.724  0.00  0.00    +0.210 HD
ENDBRANCH  65  67
ENDBRANCH  40  65
ENDBRANCH  36  40
ENDBRANCH   1  38
BRANCH   1  69
ATOM     69  CB  THR A   5      -0.319  -0.147  14.769  0.00  0.00    +0.137 C 
ATOM     70  CG2 THR A   5      -1.209  -1.331  14.434  0.00  0.00    +0.034 C 
BRANCH  69  71
ATOM     71  OG1 THR A   5      -1.060   1.060  14.517  0.00  0.00    -0.382 OA
ATOM     72  HG1 THR A   5      -1.328   1.089  13.564  0.00  0.00    +0.210 HD
ENDBRANCH  69  71
ENDBRANCH   1  69
TORSDOF 28
REMARK  Name = ../refined-set-2016/3dcc/3dcc_pocket.pdb
REMARK  150 active torsions:
REMARK  status: ('A' for Active; 'I' for Inactive)
REMARK    1  A    between atoms: _1  and  _3
REMARK    2  A    between atoms: _3  and  _4
REMARK    3  A    between atoms: _3  and  _6
REMARK    4  A    between atoms: _6  and  _7
REMARK    5  A    between atoms: _17  and  _19
REMARK    6  A    between atoms: _19  and  _20
REMARK    7  A    between atoms: _19  and  _22
REMARK    8  A    between atoms: _22  and  _23
REMARK    9  A    between atoms: _28  and  _29
REMARK   10  A    between atoms: _31  and  _33
REMARK   11  A    between atoms: _33  and  _34
REMARK   12  A    between atoms: _33  and  _36
REMARK   13  A    between atoms: _36  and  _37
REMARK   14  A    between atoms: _40  and  _41
REMARK   15  A    between atoms: _46  and  _48
REMARK   16  A    between atoms: _48  and  _49
REMARK   17  A    between atoms: _48  and  _51
REMARK   18  A    between atoms: _51  and  _52
REMARK   19  A    between atoms: _57  and  _59
REMARK   20  A    between atoms: _59  and  _60
REMARK   21  A    between atoms: _59  and  _62
REMARK   22  A    between atoms: _62  and  _63
REMARK   23  A    between atoms: _68  and  _70
REMARK   24  A    between atoms: _70  and  _71
REMARK   25  A    between atoms: _70  and  _73
REMARK   26  A    between atoms: _73  and  _74
REMARK   27  A    between atoms: _76  and  _78
REMARK   28  A    between atoms: _78  and  _79
REMARK   29  A    between atoms: _78  and  _81
REMARK   30  A    between atoms: _81  and  _82
REMARK   31  A    between atoms: _82  and  _83
REMARK   32  A    between atoms: _88  and  _90
REMARK   33  A    between atoms: _90  and  _91
REMARK   34  A    between atoms: _90  and  _93
REMARK   35  A    between atoms: _93  and  _94
REMARK   36  A    between atoms: _97  and  _99
REMARK   37  A    between atoms: _99  and  _100
REMARK   38  A    between atoms: _99  and  _102
REMARK   39  A    between atoms: _102  and  _103
REMARK   40  A    between atoms: _103  and  _104
REMARK   41  A    between atoms: _109  and  _111
REMARK   42  A    between atoms: _111  and  _112
REMARK   43  A    between atoms: _111  and  _114
REMARK   44  A    between atoms: _114  and  _115
REMARK   45  A    between atoms: _121  and  _123
REMARK   46  A    between atoms: _134  and  _137
REMARK   47  A    between atoms: _137  and  _138
REMARK   48  A    between atoms: _146  and  _147
REMARK   49  A    between atoms: _155  and  _157
REMARK   50  A    between atoms: _157  and  _158
REMARK   51  A    between atoms: _157  and  _160
REMARK   52  A    between atoms: _160  and  _161
REMARK   53  A    between atoms: _161  and  _162
REMARK   54  A    between atoms: _165  and  _167
REMARK   55  A    between atoms: _167  and  _168
REMARK   56  A    between atoms: _167  and  _170
REMARK   57  A    between atoms: _170  and  _171
REMARK   58  A    between atoms: _176  and  _178
REMARK   59  A    between atoms: _178  and  _179
REMARK   60  A    between atoms: _178  and  _181
REMARK   61  A    between atoms: _181  and  _182
REMARK   62  A    between atoms: _182  and  _183
REMARK   63  A    between atoms: _186  and  _188
REMARK   64  A    between atoms: _188  and  _189
REMARK   65  A    between atoms: _188  and  _191
REMARK   66  A    between atoms: _191  and  _192
REMARK   67  A    between atoms: _195  and  _197
REMARK   68  A    between atoms: _197  and  _198
REMARK   69  A    between atoms: _197  and  _200
REMARK   70  A    between atoms: _200  and  _201
REMARK   71  A    between atoms: _202  and  ZN_417
REMARK   72  A    between atoms: _206  and  _208
REMARK   73  A    between atoms: _208  and  _209
REMARK   74  A    between atoms: _208  and  _211
REMARK   75  A    between atoms: _211  and  _212
REMARK   76  A    between atoms: _215  and  _217
REMARK   77  A    between atoms: _217  and  _218
REMARK   78  A    between atoms: _217  and  _220
REMARK   79  A    between atoms: _223  and  _225
REMARK   80  A    between atoms: _225  and  _226
REMARK   81  A    between atoms: _225  and  _228
REMARK   82  A    between atoms: _228  and  _229
REMARK   83  A    between atoms: _234  and  _236
REMARK   84  A    between atoms: _236  and  _237
REMARK   85  A    between atoms: _236  and  _239
REMARK   86  A    between atoms: _239  and  _240
REMARK   87  A    between atoms: _246  and  _248
REMARK   88  A    between atoms: _248  and  _249
REMARK   89  A    between atoms: _248  and  _251
REMARK   90  A    between atoms: _254  and  _256
REMARK   91  A    between atoms: _256  and  _257
REMARK   92  A    between atoms: _256  and  _259
REMARK   93  A    between atoms: _259  and  _260
REMARK   94  A    between atoms: _263  and  _265
REMARK   95  A    between atoms: _265  and  _266
REMARK   96  A    between atoms: _269  and  _271
REMARK   97  A    between atoms: _271  and  _272
REMARK   98  A    between atoms: _271  and  _274
REMARK   99  A    between atoms: _277  and  _279
REMARK  100  A    between atoms: _279  and  _280
REMARK  101  A    between atoms: _279  and  _282
REMARK  102  A    between atoms: _282  and  _283
REMARK  103  A    between atoms: _286  and  _288
REMARK  104  A    between atoms: _288  and  _289
REMARK  105  A    between atoms: _291  and  _293
REMARK  106  A    between atoms: _293  and  _294
REMARK  107  A    between atoms: _293  and  _296
REMARK  108  A    between atoms: _296  and  _297
REMARK  109  A    between atoms: _299  and  _301
REMARK  110  A    between atoms: _301  and  _302
REMARK  111  A    between atoms: _301  and  _304
REMARK  112  A    between atoms: _304  and  _305
REMARK  113  A    between atoms: _308  and  _310
REMARK  114  A    between atoms: _310  and  _311
REMARK  115  A    between atoms: _310  and  _313
REMARK  116  A    between atoms: _313  and  _314
REMARK  117  A    between atoms: _317  and  _319
REMARK  118  A    between atoms: _319  and  _320
REMARK  119  A    between atoms: _319  and  _322
REMARK  120  A    between atoms: _322  and  _323
REMARK  121  A    between atoms: _327  and  _328
REMARK  122  A    between atoms: _334  and  _335
REMARK  123  A    between atoms: _340  and  _342
REMARK  124  A    between atoms: _342  and  _343
REMARK  125  A    between atoms: _342  and  _345
REMARK  126  A    between atoms: _345  and  _346
REMARK  127  A    between atoms: _349  and  _351
REMARK  128  A    between atoms: _351  and  _352
REMARK  129  A    between atoms: _351  and  _354
REMARK  130  A    between atoms: _354  and  _355
REMARK  131  A    between atoms: _358  and  _360
REMARK  132  A    between atoms: _360  and  _361
REMARK  133  A    between atoms: _360  and  _363
REMARK  134  A    between atoms: _365  and  _367
REMARK  135  A    between atoms: _367  and  _368
REMARK  136  A    between atoms: _367  and  _370
REMARK  137  A    between atoms: _373  and  _375
REMARK  138  A    between atoms: _375  and  _376
REMARK  139  A    between atoms: _375  and  _378
REMARK  140  A    between atoms: _378  and  _379
REMARK  141  A    between atoms: _389  and  _391
REMARK  142  A    between atoms: _391  and  _392
REMARK  143  A    between atoms: _391  and  _394
REMARK  144  A    between atoms: _394  and  _395
REMARK  145  A    between atoms: _400  and  _402
REMARK  146  A    between atoms: _402  and  _403
REMARK  147  A    between atoms: _402  and  _405
REMARK  148  A    between atoms: _405  and  _406
REMARK  149  A    between atoms: _406  and  _407
REMARK  150  A    between atoms: _407  and  _408
REMARK                            x       y       z     vdW  Elec       q    Type
REMARK                         _______ _______ _______ _____ _____    ______ ____
ROOT
ATOM      1  C   CYS A   1      -6.055   7.238  24.177  0.00  0.00    +0.239 C 
ATOM      2  N   VAL A   2      -6.168   5.941  24.486  0.00  0.00    -0.298 N 
ATOM      3  H   VAL A   2      -5.406   5.441  24.987  0.00  0.00    +0.150 HD
ATOM      4  O   CYS A   1      -7.016   7.882  23.754  0.00  0.00    -0.274 OA
ENDROOT
BRANCH   1   5
ATOM      5  CA  CYS A   1      -4.687   7.881  24.352  0.00  0.00    +0.156 C 
BRANCH   5   6
ATOM      6  N   CYS A   1      -3.622   6.893  24.469  0.00  0.00    -0.237 NA
ATOM      7  H   CYS A   1      -3.544   6.170  23.725  0.00  0.00    +0.142 HD
ENDBRANCH   5   6
BRANCH   5   8
ATOM      8  CB  CYS A   1      -4.379   8.763  23.132  0.00  0.00    +0.095 C 
ATOM      9  SG  CYS A   1      -4.278   7.796  21.604  0.00  0.00    -0.080 S 
ENDBRANCH   5   8
ENDBRANCH   1   5
BRANCH   2  10
ATOM     10  CA  VAL A   2      -7.399   5.248  24.096  0.00  0.00    +0.137 C 
BRANCH  10  11
ATOM     11  CB  VAL A   2      -7.098   4.026  23.200  0.00  0.00    +0.026 C 
ATOM     12  CG2 VAL A   2      -8.373   3.259  22.859  0.00  0.00    +0.002 C 
ATOM     13  CG1 VAL A   2      -6.358   4.455  21.931  0.00  0.00    +0.002 C 
ENDBRANCH  10  11
BRANCH  10  14
ATOM     14  C   VAL A   2      -8.181   4.763  25.302  0.00  0.00    +0.227 C 
ATOM     15  O   VAL A   2      -7.604   4.182  26.213  0.00  0.00    -0.286 OA
ENDBRANCH  10  14
ENDBRANCH   2  10
TORSDOF 6
REMARK  Name = ../refined-set-2016/3dcc/3dcc_pocket.pdb
REMARK  150 active torsions:
REMARK  status: ('A' for Active; 'I' for Inactive)
REMARK    1  A    between atoms: _1  and  _3
REMARK    2  A    between atoms: _3  and  _4
REMARK    3  A    between atoms: _3  and  _6
REMARK    4  A    between atoms: _6  and  _7
REMARK    5  A    between atoms: _17  and  _19
REMARK    6  A    between atoms: _19  and  _20
REMARK    7  A    between atoms: _19  and  _22
REMARK    8  A    between atoms: _22  and  _23
REMARK    9  A    between atoms: _28  and  _29
REMARK   10  A    between atoms: _31  and  _33
REMARK   11  A    between atoms: _33  and  _34
REMARK   12  A    between atoms: _33  and  _36
REMARK   13  A    between atoms: _36  and  _37
REMARK   14  A    between atoms: _40  and  _41
REMARK   15  A    between atoms: _46  and  _48
REMARK   16  A    between atoms: _48  and  _49
REMARK   17  A    between atoms: _48  and  _51
REMARK   18  A    between atoms: _51  and  _52
REMARK   19  A    between atoms: _57  and  _59
REMARK   20  A    between atoms: _59  and  _60
REMARK   21  A    between atoms: _59  and  _62
REMARK   22  A    between atoms: _62  and  _63
REMARK   23  A    between atoms: _68  and  _70
REMARK   24  A    between atoms: _70  and  _71
REMARK   25  A    between atoms: _70  and  _73
REMARK   26  A    between atoms: _73  and  _74
REMARK   27  A    between atoms: _76  and  _78
REMARK   28  A    between atoms: _78  and  _79
REMARK   29  A    between atoms: _78  and  _81
REMARK   30  A    between atoms: _81  and  _82
REMARK   31  A    between atoms: _82  and  _83
REMARK   32  A    between atoms: _88  and  _90
REMARK   33  A    between atoms: _90  and  _91
REMARK   34  A    between atoms: _90  and  _93
REMARK   35  A    between atoms: _93  and  _94
REMARK   36  A    between atoms: _97  and  _99
REMARK   37  A    between atoms: _99  and  _100
REMARK   38  A    between atoms: _99  and  _102
REMARK   39  A    between atoms: _102  and  _103
REMARK   40  A    between atoms: _103  and  _104
REMARK   41  A    between atoms: _109  and  _111
REMARK   42  A    between atoms: _111  and  _112
REMARK   43  A    between atoms: _111  and  _114
REMARK   44  A    between atoms: _114  and  _115
REMARK   45  A    between atoms: _121  and  _123
REMARK   46  A    between atoms: _134  and  _137
REMARK   47  A    between atoms: _137  and  _138
REMARK   48  A    between atoms: _146  and  _147
REMARK   49  A    between atoms: _155  and  _157
REMARK   50  A    between atoms: _157  and  _158
REMARK   51  A    between atoms: _157  and  _160
REMARK   52  A    between atoms: _160  and  _161
REMARK   53  A    between atoms: _161  and  _162
REMARK   54  A    between atoms: _165  and  _167
REMARK   55  A    between atoms: _167  and  _168
REMARK   56  A    between atoms: _167  and  _170
REMARK   57  A    between atoms: _170  and  _171
REMARK   58  A    between atoms: _176  and  _178
REMARK   59  A    between atoms: _178  and  _179
REMARK   60  A    between atoms: _178  and  _181
REMARK   61  A    between atoms: _181  and  _182
REMARK   62  A    between atoms: _182  and  _183
REMARK   63  A    between atoms: _186  and  _188
REMARK   64  A    between atoms: _188  and  _189
REMARK   65  A    between atoms: _188  and  _191
REMARK   66  A    between atoms: _191  and  _192
REMARK   67  A    between atoms: _195  and  _197
REMARK   68  A    between atoms: _197  and  _198
REMARK   69  A    between atoms: _197  and  _200
REMARK   70  A    between atoms: _200  and  _201
REMARK   71  A    between atoms: _202  and  ZN_417
REMARK   72  A    between atoms: _206  and  _208
REMARK   73  A    between atoms: _208  and  _209
REMARK   74  A    between atoms: _208  and  _211
REMARK   75  A    between atoms: _211  and  _212
REMARK   76  A    between atoms: _215  and  _217
REMARK   77  A    between atoms: _217  and  _218
REMARK   78  A    between atoms: _217  and  _220
REMARK   79  A    between atoms: _223  and  _225
REMARK   80  A    between atoms: _225  and  _226
REMARK   81  A    between atoms: _225  and  _228
REMARK   82  A    between atoms: _228  and  _229
REMARK   83  A    between atoms: _234  and  _236
REMARK   84  A    between atoms: _236  and  _237
REMARK   85  A    between atoms: _236  and  _239
REMARK   86  A    between atoms: _239  and  _240
REMARK   87  A    between atoms: _246  and  _248
REMARK   88  A    between atoms: _248  and  _249
REMARK   89  A    between atoms: _248  and  _251
REMARK   90  A    between atoms: _254  and  _256
REMARK   91  A    between atoms: _256  and  _257
REMARK   92  A    between atoms: _256  and  _259
REMARK   93  A    between atoms: _259  and  _260
REMARK   94  A    between atoms: _263  and  _265
REMARK   95  A    between atoms: _265  and  _266
REMARK   96  A    between atoms: _269  and  _271
REMARK   97  A    between atoms: _271  and  _272
REMARK   98  A    between atoms: _271  and  _274
REMARK   99  A    between atoms: _277  and  _279
REMARK  100  A    between atoms: _279  and  _280
REMARK  101  A    between atoms: _279  and  _282
REMARK  102  A    between atoms: _282  and  _283
REMARK  103  A    between atoms: _286  and  _288
REMARK  104  A    between atoms: _288  and  _289
REMARK  105  A    between atoms: _291  and  _293
REMARK  106  A    between atoms: _293  and  _294
REMARK  107  A    between atoms: _293  and  _296
REMARK  108  A    between atoms: _296  and  _297
REMARK  109  A    between atoms: _299  and  _301
REMARK  110  A    between atoms: _301  and  _302
REMARK  111  A    between atoms: _301  and  _304
REMARK  112  A    between atoms: _304  and  _305
REMARK  113  A    between atoms: _308  and  _310
REMARK  114  A    between atoms: _310  and  _311
REMARK  115  A    between atoms: _310  and  _313
REMARK  116  A    between atoms: _313  and  _314
REMARK  117  A    between atoms: _317  and  _319
REMARK  118  A    between atoms: _319  and  _320
REMARK  119  A    between atoms: _319  and  _322
REMARK  120  A    between atoms: _322  and  _323
REMARK  121  A    between atoms: _327  and  _328
REMARK  122  A    between atoms: _334  and  _335
REMARK  123  A    between atoms: _340  and  _342
REMARK  124  A    between atoms: _342  and  _343
REMARK  125  A    between atoms: _342  and  _345
REMARK  126  A    between atoms: _345  and  _346
REMARK  127  A    between atoms: _349  and  _351
REMARK  128  A    between atoms: _351  and  _352
REMARK  129  A    between atoms: _351  and  _354
REMARK  130  A    between atoms: _354  and  _355
REMARK  131  A    between atoms: _358  and  _360
REMARK  132  A    between atoms: _360  and  _361
REMARK  133  A    between atoms: _360  and  _363
REMARK  134  A    between atoms: _365  and  _367
REMARK  135  A    between atoms: _367  and  _368
REMARK  136  A    between atoms: _367  and  _370
REMARK  137  A    between atoms: _373  and  _375
REMARK  138  A    between atoms: _375  and  _376
REMARK  139  A    between atoms: _375  and  _378
REMARK  140  A    between atoms: _378  and  _379
REMARK  141  A    between atoms: _389  and  _391
REMARK  142  A    between atoms: _391  and  _392
REMARK  143  A    between atoms: _391  and  _394
REMARK  144  A    between atoms: _394  and  _395
REMARK  145  A    between atoms: _400  and  _402
REMARK  146  A    between atoms: _402  and  _403
REMARK  147  A    between atoms: _402  and  _405
REMARK  148  A    between atoms: _405  and  _406
REMARK  149  A    between atoms: _406  and  _407
REMARK  150  A    between atoms: _407  and  _408
REMARK                            x       y       z     vdW  Elec       q    Type
REMARK                         _______ _______ _______ _____ _____    ______ ____
ROOT
ATOM      1  CG  TRP A   1      -8.896  -0.246  24.292  0.00  0.00    -0.002 A 
ATOM      2  CD1 TRP A   1      -7.663   0.301  24.463  0.00  0.00    +0.068 A 
ATOM      3  NE1 TRP A   1      -6.941   0.214  23.284  0.00  0.00    -0.352 N 
ATOM      4  HE1 TRP A   1      -5.970   0.559  23.143  0.00  0.00    +0.166 HD
ATOM      5  CE2 TRP A   1      -7.719  -0.404  22.329  0.00  0.00    +0.056 A 
ATOM      6  CZ2 TRP A   1      -7.422  -0.712  20.997  0.00  0.00    +0.017 A 
ATOM      7  CH2 TRP A   1      -8.414  -1.341  20.286  0.00  0.00    +0.001 A 
ATOM      8  CZ3 TRP A   1      -9.661  -1.654  20.858  0.00  0.00    +0.000 A 
ATOM      9  CE3 TRP A   1      -9.950  -1.346  22.171  0.00  0.00    +0.001 A 
ATOM     10  CD2 TRP A   1      -8.953  -0.707  22.918  0.00  0.00    +0.013 A 
ENDROOT
BRANCH   1  11
ATOM     11  CB  TRP A   1     -10.012  -0.370  25.289  0.00  0.00    +0.053 C 
BRANCH  11  12
ATOM     12  CA  TRP A   1     -11.044   0.748  25.087  0.00  0.00    +0.137 C 
BRANCH  12  13
ATOM     13  N   TRP A   1     -10.556   1.950  25.781  0.00  0.00    -0.239 NA
ATOM     14  H   TRP A   1      -9.871   1.859  26.558  0.00  0.00    +0.142 HD
ENDBRANCH  12  13
BRANCH  12  15
ATOM     15  C   TRP A   1     -12.430   0.351  25.572  0.00  0.00    +0.224 C 
ATOM     16  O   TRP A   1     -12.701   0.298  26.775  0.00  0.00    -0.287 OA
ENDBRANCH  12  15
ENDBRANCH  11  12
ENDBRANCH   1  11
TORSDOF 4
REMARK  Name = ../refined-set-2016/3dcc/3dcc_pocket.pdb
REMARK  150 active torsions:
REMARK  status: ('A' for Active; 'I' for Inactive)
REMARK    1  A    between atoms: _1  and  _3
REMARK    2  A    between atoms: _3  and  _4
REMARK    3  A    between atoms: _3  and  _6
REMARK    4  A    between atoms: _6  and  _7
REMARK    5  A    between atoms: _17  and  _19
REMARK    6  A    between atoms: _19  and  _20
REMARK    7  A    between atoms: _19  and  _22
REMARK    8  A    between atoms: _22  and  _23
REMARK    9  A    between atoms: _28  and  _29
REMARK   10  A    between atoms: _31  and  _33
REMARK   11  A    between atoms: _33  and  _34
REMARK   12  A    between atoms: _33  and  _36
REMARK   13  A    between atoms: _36  and  _37
REMARK   14  A    between atoms: _40  and  _41
REMARK   15  A    between atoms: _46  and  _48
REMARK   16  A    between atoms: _48  and  _49
REMARK   17  A    between atoms: _48  and  _51
REMARK   18  A    between atoms: _51  and  _52
REMARK   19  A    between atoms: _57  and  _59
REMARK   20  A    between atoms: _59  and  _60
REMARK   21  A    between atoms: _59  and  _62
REMARK   22  A    between atoms: _62  and  _63
REMARK   23  A    between atoms: _68  and  _70
REMARK   24  A    between atoms: _70  and  _71
REMARK   25  A    between atoms: _70  and  _73
REMARK   26  A    between atoms: _73  and  _74
REMARK   27  A    between atoms: _76  and  _78
REMARK   28  A    between atoms: _78  and  _79
REMARK   29  A    between atoms: _78  and  _81
REMARK   30  A    between atoms: _81  and  _82
REMARK   31  A    between atoms: _82  and  _83
REMARK   32  A    between atoms: _88  and  _90
REMARK   33  A    between atoms: _90  and  _91
REMARK   34  A    between atoms: _90  and  _93
REMARK   35  A    between atoms: _93  and  _94
REMARK   36  A    between atoms: _97  and  _99
REMARK   37  A    between atoms: _99  and  _100
REMARK   38  A    between atoms: _99  and  _102
REMARK   39  A    between atoms: _102  and  _103
REMARK   40  A    between atoms: _103  and  _104
REMARK   41  A    between atoms: _109  and  _111
REMARK   42  A    between atoms: _111  and  _112
REMARK   43  A    between atoms: _111  and  _114
REMARK   44  A    between atoms: _114  and  _115
REMARK   45  A    between atoms: _121  and  _123
REMARK   46  A    between atoms: _134  and  _137
REMARK   47  A    between atoms: _137  and  _138
REMARK   48  A    between atoms: _146  and  _147
REMARK   49  A    between atoms: _155  and  _157
REMARK   50  A    between atoms: _157  and  _158
REMARK   51  A    between atoms: _157  and  _160
REMARK   52  A    between atoms: _160  and  _161
REMARK   53  A    between atoms: _161  and  _162
REMARK   54  A    between atoms: _165  and  _167
REMARK   55  A    between atoms: _167  and  _168
REMARK   56  A    between atoms: _167  and  _170
REMARK   57  A    between atoms: _170  and  _171
REMARK   58  A    between atoms: _176  and  _178
REMARK   59  A    between atoms: _178  and  _179
REMARK   60  A    between atoms: _178  and  _181
REMARK   61  A    between atoms: _181  and  _182
REMARK   62  A    between atoms: _182  and  _183
REMARK   63  A    between atoms: _186  and  _188
REMARK   64  A    between atoms: _188  and  _189
REMARK   65  A    between atoms: _188  and  _191
REMARK   66  A    between atoms: _191  and  _192
REMARK   67  A    between atoms: _195  and  _197
REMARK   68  A    between atoms: _197  and  _198
REMARK   69  A    between atoms: _197  and  _200
REMARK   70  A    between atoms: _200  and  _201
REMARK   71  A    between atoms: _202  and  ZN_417
REMARK   72  A    between atoms: _206  and  _208
REMARK   73  A    between atoms: _208  and  _209
REMARK   74  A    between atoms: _208  and  _211
REMARK   75  A    between atoms: _211  and  _212
REMARK   76  A    between atoms: _215  and  _217
REMARK   77  A    between atoms: _217  and  _218
REMARK   78  A    between atoms: _217  and  _220
REMARK   79  A    between atoms: _223  and  _225
REMARK   80  A    between atoms: _225  and  _226
REMARK   81  A    between atoms: _225  and  _228
REMARK   82  A    between atoms: _228  and  _229
REMARK   83  A    between atoms: _234  and  _236
REMARK   84  A    between atoms: _236  and  _237
REMARK   85  A    between atoms: _236  and  _239
REMARK   86  A    between atoms: _239  and  _240
REMARK   87  A    between atoms: _246  and  _248
REMARK   88  A    between atoms: _248  and  _249
REMARK   89  A    between atoms: _248  and  _251
REMARK   90  A    between atoms: _254  and  _256
REMARK   91  A    between atoms: _256  and  _257
REMARK   92  A    between atoms: _256  and  _259
REMARK   93  A    between atoms: _259  and  _260
REMARK   94  A    between atoms: _263  and  _265
REMARK   95  A    between atoms: _265  and  _266
REMARK   96  A    between atoms: _269  and  _271
REMARK   97  A    between atoms: _271  and  _272
REMARK   98  A    between atoms: _271  and  _274
REMARK   99  A    between atoms: _277  and  _279
REMARK  100  A    between atoms: _279  and  _280
REMARK  101  A    between atoms: _279  and  _282
REMARK  102  A    between atoms: _282  and  _283
REMARK  103  A    between atoms: _286  and  _288
REMARK  104  A    between atoms: _288  and  _289
REMARK  105  A    between atoms: _291  and  _293
REMARK  106  A    between atoms: _293  and  _294
REMARK  107  A    between atoms: _293  and  _296
REMARK  108  A    between atoms: _296  and  _297
REMARK  109  A    between atoms: _299  and  _301
REMARK  110  A    between atoms: _301  and  _302
REMARK  111  A    between atoms: _301  and  _304
REMARK  112  A    between atoms: _304  and  _305
REMARK  113  A    between atoms: _308  and  _310
REMARK  114  A    between atoms: _310  and  _311
REMARK  115  A    between atoms: _310  and  _313
REMARK  116  A    between atoms: _313  and  _314
REMARK  117  A    between atoms: _317  and  _319
REMARK  118  A    between atoms: _319  and  _320
REMARK  119  A    between atoms: _319  and  _322
REMARK  120  A    between atoms: _322  and  _323
REMARK  121  A    between atoms: _327  and  _328
REMARK  122  A    between atoms: _334  and  _335
REMARK  123  A    between atoms: _340  and  _342
REMARK  124  A    between atoms: _342  and  _343
REMARK  125  A    between atoms: _342  and  _345
REMARK  126  A    between atoms: _345  and  _346
REMARK  127  A    between atoms: _349  and  _351
REMARK  128  A    between atoms: _351  and  _352
REMARK  129  A    between atoms: _351  and  _354
REMARK  130  A    between atoms: _354  and  _355
REMARK  131  A    between atoms: _358  and  _360
REMARK  132  A    between atoms: _360  and  _361
REMARK  133  A    between atoms: _360  and  _363
REMARK  134  A    between atoms: _365  and  _367
REMARK  135  A    between atoms: _367  and  _368
REMARK  136  A    between atoms: _367  and  _370
REMARK  137  A    between atoms: _373  and  _375
REMARK  138  A    between atoms: _375  and  _376
REMARK  139  A    between atoms: _375  and  _378
REMARK  140  A    between atoms: _378  and  _379
REMARK  141  A    between atoms: _389  and  _391
REMARK  142  A    between atoms: _391  and  _392
REMARK  143  A    between atoms: _391  and  _394
REMARK  144  A    between atoms: _394  and  _395
REMARK  145  A    between atoms: _400  and  _402
REMARK  146  A    between atoms: _402  and  _403
REMARK  147  A    between atoms: _402  and  _405
REMARK  148  A    between atoms: _405  and  _406
REMARK  149  A    between atoms: _406  and  _407
REMARK  150  A    between atoms: _407  and  _408
REMARK                            x       y       z     vdW  Elec       q    Type
REMARK                         _______ _______ _______ _____ _____    ______ ____
ROOT
ATOM      1  CB  ASN A   1      -2.068  -7.647  10.593  0.00  0.00    +0.110 C 
ENDROOT
BRANCH   1   2
ATOM      2  CG  ASN A   1      -3.550  -7.810  10.347  0.00  0.00    +0.221 C 
ATOM      3  OD1 ASN A   1      -4.187  -8.706  10.896  0.00  0.00    -0.275 OA
ATOM      4  ND2 ASN A   1      -4.105  -6.944   9.525  0.00  0.00    -0.329 N 
ATOM      5 HD21 ASN A   1      -5.122  -7.002   9.318  0.00  0.00    +0.145 HD
ATOM      6 HD22 ASN A   1      -3.526  -6.202   9.083  0.00  0.00    +0.145 HD
ENDBRANCH   1   2
BRANCH   1   7
ATOM      7  CA  ASN A   1      -1.545  -8.529  11.719  0.00  0.00    +0.142 C 
BRANCH   7   8
ATOM      8  N   ASN A   1      -1.868  -9.903  11.498  0.00  0.00    -0.239 NA
ATOM      9  H   ASN A   1      -2.800 -10.142  11.104  0.00  0.00    +0.142 HD
ENDBRANCH   7   8
BRANCH   7  10
ATOM     10  C   ASN A   1      -2.082  -8.087  13.076  0.00  0.00    +0.225 C 
ATOM     11  O   ASN A   1      -2.739  -7.039  13.187  0.00  0.00    -0.287 OA
ENDBRANCH   7  10
ENDBRANCH   1   7
TORSDOF 4
REMARK  Name = ../refined-set-2016/3dcc/3dcc_pocket.pdb
REMARK  150 active torsions:
REMARK  status: ('A' for Active; 'I' for Inactive)
REMARK    1  A    between atoms: _1  and  _3
REMARK    2  A    between atoms: _3  and  _4
REMARK    3  A    between atoms: _3  and  _6
REMARK    4  A    between atoms: _6  and  _7
REMARK    5  A    between atoms: _17  and  _19
REMARK    6  A    between atoms: _19  and  _20
REMARK    7  A    between atoms: _19  and  _22
REMARK    8  A    between atoms: _22  and  _23
REMARK    9  A    between atoms: _28  and  _29
REMARK   10  A    between atoms: _31  and  _33
REMARK   11  A    between atoms: _33  and  _34
REMARK   12  A    between atoms: _33  and  _36
REMARK   13  A    between atoms: _36  and  _37
REMARK   14  A    between atoms: _40  and  _41
REMARK   15  A    between atoms: _46  and  _48
REMARK   16  A    between atoms: _48  and  _49
REMARK   17  A    between atoms: _48  and  _51
REMARK   18  A    between atoms: _51  and  _52
REMARK   19  A    between atoms: _57  and  _59
REMARK   20  A    between atoms: _59  and  _60
REMARK   21  A    between atoms: _59  and  _62
REMARK   22  A    between atoms: _62  and  _63
REMARK   23  A    between atoms: _68  and  _70
REMARK   24  A    between atoms: _70  and  _71
REMARK   25  A    between atoms: _70  and  _73
REMARK   26  A    between atoms: _73  and  _74
REMARK   27  A    between atoms: _76  and  _78
REMARK   28  A    between atoms: _78  and  _79
REMARK   29  A    between atoms: _78  and  _81
REMARK   30  A    between atoms: _81  and  _82
REMARK   31  A    between atoms: _82  and  _83
REMARK   32  A    between atoms: _88  and  _90
REMARK   33  A    between atoms: _90  and  _91
REMARK   34  A    between atoms: _90  and  _93
REMARK   35  A    between atoms: _93  and  _94
REMARK   36  A    between atoms: _97  and  _99
REMARK   37  A    between atoms: _99  and  _100
REMARK   38  A    between atoms: _99  and  _102
REMARK   39  A    between atoms: _102  and  _103
REMARK   40  A    between atoms: _103  and  _104
REMARK   41  A    between atoms: _109  and  _111
REMARK   42  A    between atoms: _111  and  _112
REMARK   43  A    between atoms: _111  and  _114
REMARK   44  A    between atoms: _114  and  _115
REMARK   45  A    between atoms: _121  and  _123
REMARK   46  A    between atoms: _134  and  _137
REMARK   47  A    between atoms: _137  and  _138
REMARK   48  A    between atoms: _146  and  _147
REMARK   49  A    between atoms: _155  and  _157
REMARK   50  A    between atoms: _157  and  _158
REMARK   51  A    between atoms: _157  and  _160
REMARK   52  A    between atoms: _160  and  _161
REMARK   53  A    between atoms: _161  and  _162
REMARK   54  A    between atoms: _165  and  _167
REMARK   55  A    between atoms: _167  and  _168
REMARK   56  A    between atoms: _167  and  _170
REMARK   57  A    between atoms: _170  and  _171
REMARK   58  A    between atoms: _176  and  _178
REMARK   59  A    between atoms: _178  and  _179
REMARK   60  A    between atoms: _178  and  _181
REMARK   61  A    between atoms: _181  and  _182
REMARK   62  A    between atoms: _182  and  _183
REMARK   63  A    between atoms: _186  and  _188
REMARK   64  A    between atoms: _188  and  _189
REMARK   65  A    between atoms: _188  and  _191
REMARK   66  A    between atoms: _191  and  _192
REMARK   67  A    between atoms: _195  and  _197
REMARK   68  A    between atoms: _197  and  _198
REMARK   69  A    between atoms: _197  and  _200
REMARK   70  A    between atoms: _200  and  _201
REMARK   71  A    between atoms: _202  and  ZN_417
REMARK   72  A    between atoms: _206  and  _208
REMARK   73  A    between atoms: _208  and  _209
REMARK   74  A    between atoms: _208  and  _211
REMARK   75  A    between atoms: _211  and  _212
REMARK   76  A    between atoms: _215  and  _217
REMARK   77  A    between atoms: _217  and  _218
REMARK   78  A    between atoms: _217  and  _220
REMARK   79  A    between atoms: _223  and  _225
REMARK   80  A    between atoms: _225  and  _226
REMARK   81  A    between atoms: _225  and  _228
REMARK   82  A    between atoms: _228  and  _229
REMARK   83  A    between atoms: _234  and  _236
REMARK   84  A    between atoms: _236  and  _237
REMARK   85  A    between atoms: _236  and  _239
REMARK   86  A    between atoms: _239  and  _240
REMARK   87  A    between atoms: _246  and  _248
REMARK   88  A    between atoms: _248  and  _249
REMARK   89  A    between atoms: _248  and  _251
REMARK   90  A    between atoms: _254  and  _256
REMARK   91  A    between atoms: _256  and  _257
REMARK   92  A    between atoms: _256  and  _259
REMARK   93  A    between atoms: _259  and  _260
REMARK   94  A    between atoms: _263  and  _265
REMARK   95  A    between atoms: _265  and  _266
REMARK   96  A    between atoms: _269  and  _271
REMARK   97  A    between atoms: _271  and  _272
REMARK   98  A    between atoms: _271  and  _274
REMARK   99  A    between atoms: _277  and  _279
REMARK  100  A    between atoms: _279  and  _280
REMARK  101  A    between atoms: _279  and  _282
REMARK  102  A    between atoms: _282  and  _283
REMARK  103  A    between atoms: _286  and  _288
REMARK  104  A    between atoms: _288  and  _289
REMARK  105  A    between atoms: _291  and  _293
REMARK  106  A    between atoms: _293  and  _294
REMARK  107  A    between atoms: _293  and  _296
REMARK  108  A    between atoms: _296  and  _297
REMARK  109  A    between atoms: _299  and  _301
REMARK  110  A    between atoms: _301  and  _302
REMARK  111  A    between atoms: _301  and  _304
REMARK  112  A    between atoms: _304  and  _305
REMARK  113  A    between atoms: _308  and  _310
REMARK  114  A    between atoms: _310  and  _311
REMARK  115  A    between atoms: _310  and  _313
REMARK  116  A    between atoms: _313  and  _314
REMARK  117  A    between atoms: _317  and  _319
REMARK  118  A    between atoms: _319  and  _320
REMARK  119  A    between atoms: _319  and  _322
REMARK  120  A    between atoms: _322  and  _323
REMARK  121  A    between atoms: _327  and  _328
REMARK  122  A    between atoms: _334  and  _335
REMARK  123  A    between atoms: _340  and  _342
REMARK  124  A    between atoms: _342  and  _343
REMARK  125  A    between atoms: _342  and  _345
REMARK  126  A    between atoms: _345  and  _346
REMARK  127  A    between atoms: _349  and  _351
REMARK  128  A    between atoms: _351  and  _352
REMARK  129  A    between atoms: _351  and  _354
REMARK  130  A    between atoms: _354  and  _355
REMARK  131  A    between atoms: _358  and  _360
REMARK  132  A    between atoms: _360  and  _361
REMARK  133  A    between atoms: _360  and  _363
REMARK  134  A    between atoms: _365  and  _367
REMARK  135  A    between atoms: _367  and  _368
REMARK  136  A    between atoms: _367  and  _370
REMARK  137  A    between atoms: _373  and  _375
REMARK  138  A    between atoms: _375  and  _376
REMARK  139  A    between atoms: _375  and  _378
REMARK  140  A    between atoms: _378  and  _379
REMARK  141  A    between atoms: _389  and  _391
REMARK  142  A    between atoms: _391  and  _392
REMARK  143  A    between atoms: _391  and  _394
REMARK  144  A    between atoms: _394  and  _395
REMARK  145  A    between atoms: _400  and  _402
REMARK  146  A    between atoms: _402  and  _403
REMARK  147  A    between atoms: _402  and  _405
REMARK  148  A    between atoms: _405  and  _406
REMARK  149  A    between atoms: _406  and  _407
REMARK  150  A    between atoms: _407  and  _408
REMARK                            x       y       z     vdW  Elec       q    Type
REMARK                         _______ _______ _______ _____ _____    ______ ____
ROOT
ATOM      1  NE  ARG A   1       2.065  -4.064  21.241  0.00  0.00    -0.265 N 
ATOM      2  CZ  ARG A   1       2.216  -3.064  22.098  0.00  0.00    +0.342 C 
ATOM      3  NH2 ARG A   1       3.432  -2.858  22.597  0.00  0.00    -0.292 N 
ATOM      4 HH21 ARG A   1       3.593  -2.084  23.272  0.00  0.00    +0.255 HD
ATOM      5 HH22 ARG A   1       4.222  -3.471  22.312  0.00  0.00    +0.255 HD
ATOM      6  NH1 ARG A   1       1.206  -2.276  22.464  0.00  0.00    -0.292 N 
ATOM      7 HH11 ARG A   1       1.369  -1.502  23.140  0.00  0.00    +0.255 HD
ATOM      8 HH12 ARG A   1       0.255  -2.435  22.074  0.00  0.00    +0.255 HD
ATOM      9  HE  ARG A   1       2.915  -4.623  21.026  0.00  0.00    +0.259 HD
ENDROOT
BRANCH   1  10
ATOM     10  CD  ARG A   1       0.834  -4.466  20.567  0.00  0.00    +0.174 C 
BRANCH  10  11
ATOM     11  CG  ARG A   1       0.936  -5.877  19.983  0.00  0.00    +0.045 C 
BRANCH  11  12
ATOM     12  CB  ARG A   1      -0.103  -6.097  18.908  0.00  0.00    +0.029 C 
BRANCH  12  13
ATOM     13  CA  ARG A   1      -0.235  -7.579  18.496  0.00  0.00    +0.133 C 
BRANCH  13  14
ATOM     14  N   ARG A   1      -1.226  -7.689  17.434  0.00  0.00    -0.239 NA
ATOM     15  H   ARG A   1      -2.081  -7.098  17.469  0.00  0.00    +0.142 HD
ENDBRANCH  13  14
BRANCH  13  16
ATOM     16  C   ARG A   1      -0.684  -8.441  19.667  0.00  0.00    +0.224 C 
ATOM     17  O   ARG A   1      -1.860  -8.494  20.005  0.00  0.00    -0.287 OA
ENDBRANCH  13  16
ENDBRANCH  12  13
ENDBRANCH  11  12
ENDBRANCH  10  11
ENDBRANCH   1  10
TORSDOF 6
REMARK  Name = ../refined-set-2016/3dcc/3dcc_pocket.pdb
REMARK  150 active torsions:
REMARK  status: ('A' for Active; 'I' for Inactive)
REMARK    1  A    between atoms: _1  and  _3
REMARK    2  A    between atoms: _3  and  _4
REMARK    3  A    between atoms: _3  and  _6
REMARK    4  A    between atoms: _6  and  _7
REMARK    5  A    between atoms: _17  and  _19
REMARK    6  A    between atoms: _19  and  _20
REMARK    7  A    between atoms: _19  and  _22
REMARK    8  A    between atoms: _22  and  _23
REMARK    9  A    between atoms: _28  and  _29
REMARK   10  A    between atoms: _31  and  _33
REMARK   11  A    between atoms: _33  and  _34
REMARK   12  A    between atoms: _33  and  _36
REMARK   13  A    between atoms: _36  and  _37
REMARK   14  A    between atoms: _40  and  _41
REMARK   15  A    between atoms: _46  and  _48
REMARK   16  A    between atoms: _48  and  _49
REMARK   17  A    between atoms: _48  and  _51
REMARK   18  A    between atoms: _51  and  _52
REMARK   19  A    between atoms: _57  and  _59
REMARK   20  A    between atoms: _59  and  _60
REMARK   21  A    between atoms: _59  and  _62
REMARK   22  A    between atoms: _62  and  _63
REMARK   23  A    between atoms: _68  and  _70
REMARK   24  A    between atoms: _70  and  _71
REMARK   25  A    between atoms: _70  and  _73
REMARK   26  A    between atoms: _73  and  _74
REMARK   27  A    between atoms: _76  and  _78
REMARK   28  A    between atoms: _78  and  _79
REMARK   29  A    between atoms: _78  and  _81
REMARK   30  A    between atoms: _81  and  _82
REMARK   31  A    between atoms: _82  and  _83
REMARK   32  A    between atoms: _88  and  _90
REMARK   33  A    between atoms: _90  and  _91
REMARK   34  A    between atoms: _90  and  _93
REMARK   35  A    between atoms: _93  and  _94
REMARK   36  A    between atoms: _97  and  _99
REMARK   37  A    between atoms: _99  and  _100
REMARK   38  A    between atoms: _99  and  _102
REMARK   39  A    between atoms: _102  and  _103
REMARK   40  A    between atoms: _103  and  _104
REMARK   41  A    between atoms: _109  and  _111
REMARK   42  A    between atoms: _111  and  _112
REMARK   43  A    between atoms: _111  and  _114
REMARK   44  A    between atoms: _114  and  _115
REMARK   45  A    between atoms: _121  and  _123
REMARK   46  A    between atoms: _134  and  _137
REMARK   47  A    between atoms: _137  and  _138
REMARK   48  A    between atoms: _146  and  _147
REMARK   49  A    between atoms: _155  and  _157
REMARK   50  A    between atoms: _157  and  _158
REMARK   51  A    between atoms: _157  and  _160
REMARK   52  A    between atoms: _160  and  _161
REMARK   53  A    between atoms: _161  and  _162
REMARK   54  A    between atoms: _165  and  _167
REMARK   55  A    between atoms: _167  and  _168
REMARK   56  A    between atoms: _167  and  _170
REMARK   57  A    between atoms: _170  and  _171
REMARK   58  A    between atoms: _176  and  _178
REMARK   59  A    between atoms: _178  and  _179
REMARK   60  A    between atoms: _178  and  _181
REMARK   61  A    between atoms: _181  and  _182
REMARK   62  A    between atoms: _182  and  _183
REMARK   63  A    between atoms: _186  and  _188
REMARK   64  A    between atoms: _188  and  _189
REMARK   65  A    between atoms: _188  and  _191
REMARK   66  A    between atoms: _191  and  _192
REMARK   67  A    between atoms: _195  and  _197
REMARK   68  A    between atoms: _197  and  _198
REMARK   69  A    between atoms: _197  and  _200
REMARK   70  A    between atoms: _200  and  _201
REMARK   71  A    between atoms: _202  and  ZN_417
REMARK   72  A    between atoms: _206  and  _208
REMARK   73  A    between atoms: _208  and  _209
REMARK   74  A    between atoms: _208  and  _211
REMARK   75  A    between atoms: _211  and  _212
REMARK   76  A    between atoms: _215  and  _217
REMARK   77  A    between atoms: _217  and  _218
REMARK   78  A    between atoms: _217  and  _220
REMARK   79  A    between atoms: _223  and  _225
REMARK   80  A    between atoms: _225  and  _226
REMARK   81  A    between atoms: _225  and  _228
REMARK   82  A    between atoms: _228  and  _229
REMARK   83  A    between atoms: _234  and  _236
REMARK   84  A    between atoms: _236  and  _237
REMARK   85  A    between atoms: _236  and  _239
REMARK   86  A    between atoms: _239  and  _240
REMARK   87  A    between atoms: _246  and  _248
REMARK   88  A    between atoms: _248  and  _249
REMARK   89  A    between atoms: _248  and  _251
REMARK   90  A    between atoms: _254  and  _256
REMARK   91  A    between atoms: _256  and  _257
REMARK   92  A    between atoms: _256  and  _259
REMARK   93  A    between atoms: _259  and  _260
REMARK   94  A    between atoms: _263  and  _265
REMARK   95  A    between atoms: _265  and  _266
REMARK   96  A    between atoms: _269  and  _271
REMARK   97  A    between atoms: _271  and  _272
REMARK   98  A    between atoms: _271  and  _274
REMARK   99  A    between atoms: _277  and  _279
REMARK  100  A    between atoms: _279  and  _280
REMARK  101  A    between atoms: _279  and  _282
REMARK  102  A    between atoms: _282  and  _283
REMARK  103  A    between atoms: _286  and  _288
REMARK  104  A    between atoms: _288  and  _289
REMARK  105  A    between atoms: _291  and  _293
REMARK  106  A    between atoms: _293  and  _294
REMARK  107  A    between atoms: _293  and  _296
REMARK  108  A    between atoms: _296  and  _297
REMARK  109  A    between atoms: _299  and  _301
REMARK  110  A    between atoms: _301  and  _302
REMARK  111  A    between atoms: _301  and  _304
REMARK  112  A    between atoms: _304  and  _305
REMARK  113  A    between atoms: _308  and  _310
REMARK  114  A    between atoms: _310  and  _311
REMARK  115  A    between atoms: _310  and  _313
REMARK  116  A    between atoms: _313  and  _314
REMARK  117  A    between atoms: _317  and  _319
REMARK  118  A    between atoms: _319  and  _320
REMARK  119  A    between atoms: _319  and  _322
REMARK  120  A    between atoms: _322  and  _323
REMARK  121  A    between atoms: _327  and  _328
REMARK  122  A    between atoms: _334  and  _335
REMARK  123  A    between atoms: _340  and  _342
REMARK  124  A    between atoms: _342  and  _343
REMARK  125  A    between atoms: _342  and  _345
REMARK  126  A    between atoms: _345  and  _346
REMARK  127  A    between atoms: _349  and  _351
REMARK  128  A    between atoms: _351  and  _352
REMARK  129  A    between atoms: _351  and  _354
REMARK  130  A    between atoms: _354  and  _355
REMARK  131  A    between atoms: _358  and  _360
REMARK  132  A    between atoms: _360  and  _361
REMARK  133  A    between atoms: _360  and  _363
REMARK  134  A    between atoms: _365  and  _367
REMARK  135  A    between atoms: _367  and  _368
REMARK  136  A    between atoms: _367  and  _370
REMARK  137  A    between atoms: _373  and  _375
REMARK  138  A    between atoms: _375  and  _376
REMARK  139  A    between atoms: _375  and  _378
REMARK  140  A    between atoms: _378  and  _379
REMARK  141  A    between atoms: _389  and  _391
REMARK  142  A    between atoms: _391  and  _392
REMARK  143  A    between atoms: _391  and  _394
REMARK  144  A    between atoms: _394  and  _395
REMARK  145  A    between atoms: _400  and  _402
REMARK  146  A    between atoms: _402  and  _403
REMARK  147  A    between atoms: _402  and  _405
REMARK  148  A    between atoms: _405  and  _406
REMARK  149  A    between atoms: _406  and  _407
REMARK  150  A    between atoms: _407  and  _408
REMARK                            x       y       z     vdW  Elec       q    Type
REMARK                         _______ _______ _______ _____ _____    ______ ____
ROOT
ATOM      1  O   HOH     1      -1.409  -4.376  15.952  0.00  0.00    +0.000 OA
ENDROOT
TORSDOF 0
REMARK  Name = ../refined-set-2016/3dcc/3dcc_pocket.pdb
REMARK  150 active torsions:
REMARK  status: ('A' for Active; 'I' for Inactive)
REMARK    1  A    between atoms: _1  and  _3
REMARK    2  A    between atoms: _3  and  _4
REMARK    3  A    between atoms: _3  and  _6
REMARK    4  A    between atoms: _6  and  _7
REMARK    5  A    between atoms: _17  and  _19
REMARK    6  A    between atoms: _19  and  _20
REMARK    7  A    between atoms: _19  and  _22
REMARK    8  A    between atoms: _22  and  _23
REMARK    9  A    between atoms: _28  and  _29
REMARK   10  A    between atoms: _31  and  _33
REMARK   11  A    between atoms: _33  and  _34
REMARK   12  A    between atoms: _33  and  _36
REMARK   13  A    between atoms: _36  and  _37
REMARK   14  A    between atoms: _40  and  _41
REMARK   15  A    between atoms: _46  and  _48
REMARK   16  A    between atoms: _48  and  _49
REMARK   17  A    between atoms: _48  and  _51
REMARK   18  A    between atoms: _51  and  _52
REMARK   19  A    between atoms: _57  and  _59
REMARK   20  A    between atoms: _59  and  _60
REMARK   21  A    between atoms: _59  and  _62
REMARK   22  A    between atoms: _62  and  _63
REMARK   23  A    between atoms: _68  and  _70
REMARK   24  A    between atoms: _70  and  _71
REMARK   25  A    between atoms: _70  and  _73
REMARK   26  A    between atoms: _73  and  _74
REMARK   27  A    between atoms: _76  and  _78
REMARK   28  A    between atoms: _78  and  _79
REMARK   29  A    between atoms: _78  and  _81
REMARK   30  A    between atoms: _81  and  _82
REMARK   31  A    between atoms: _82  and  _83
REMARK   32  A    between atoms: _88  and  _90
REMARK   33  A    between atoms: _90  and  _91
REMARK   34  A    between atoms: _90  and  _93
REMARK   35  A    between atoms: _93  and  _94
REMARK   36  A    between atoms: _97  and  _99
REMARK   37  A    between atoms: _99  and  _100
REMARK   38  A    between atoms: _99  and  _102
REMARK   39  A    between atoms: _102  and  _103
REMARK   40  A    between atoms: _103  and  _104
REMARK   41  A    between atoms: _109  and  _111
REMARK   42  A    between atoms: _111  and  _112
REMARK   43  A    between atoms: _111  and  _114
REMARK   44  A    between atoms: _114  and  _115
REMARK   45  A    between atoms: _121  and  _123
REMARK   46  A    between atoms: _134  and  _137
REMARK   47  A    between atoms: _137  and  _138
REMARK   48  A    between atoms: _146  and  _147
REMARK   49  A    between atoms: _155  and  _157
REMARK   50  A    between atoms: _157  and  _158
REMARK   51  A    between atoms: _157  and  _160
REMARK   52  A    between atoms: _160  and  _161
REMARK   53  A    between atoms: _161  and  _162
REMARK   54  A    between atoms: _165  and  _167
REMARK   55  A    between atoms: _167  and  _168
REMARK   56  A    between atoms: _167  and  _170
REMARK   57  A    between atoms: _170  and  _171
REMARK   58  A    between atoms: _176  and  _178
REMARK   59  A    between atoms: _178  and  _179
REMARK   60  A    between atoms: _178  and  _181
REMARK   61  A    between atoms: _181  and  _182
REMARK   62  A    between atoms: _182  and  _183
REMARK   63  A    between atoms: _186  and  _188
REMARK   64  A    between atoms: _188  and  _189
REMARK   65  A    between atoms: _188  and  _191
REMARK   66  A    between atoms: _191  and  _192
REMARK   67  A    between atoms: _195  and  _197
REMARK   68  A    between atoms: _197  and  _198
REMARK   69  A    between atoms: _197  and  _200
REMARK   70  A    between atoms: _200  and  _201
REMARK   71  A    between atoms: _202  and  ZN_417
REMARK   72  A    between atoms: _206  and  _208
REMARK   73  A    between atoms: _208  and  _209
REMARK   74  A    between atoms: _208  and  _211
REMARK   75  A    between atoms: _211  and  _212
REMARK   76  A    between atoms: _215  and  _217
REMARK   77  A    between atoms: _217  and  _218
REMARK   78  A    between atoms: _217  and  _220
REMARK   79  A    between atoms: _223  and  _225
REMARK   80  A    between atoms: _225  and  _226
REMARK   81  A    between atoms: _225  and  _228
REMARK   82  A    between atoms: _228  and  _229
REMARK   83  A    between atoms: _234  and  _236
REMARK   84  A    between atoms: _236  and  _237
REMARK   85  A    between atoms: _236  and  _239
REMARK   86  A    between atoms: _239  and  _240
REMARK   87  A    between atoms: _246  and  _248
REMARK   88  A    between atoms: _248  and  _249
REMARK   89  A    between atoms: _248  and  _251
REMARK   90  A    between atoms: _254  and  _256
REMARK   91  A    between atoms: _256  and  _257
REMARK   92  A    between atoms: _256  and  _259
REMARK   93  A    between atoms: _259  and  _260
REMARK   94  A    between atoms: _263  and  _265
REMARK   95  A    between atoms: _265  and  _266
REMARK   96  A    between atoms: _269  and  _271
REMARK   97  A    between atoms: _271  and  _272
REMARK   98  A    between atoms: _271  and  _274
REMARK   99  A    between atoms: _277  and  _279
REMARK  100  A    between atoms: _279  and  _280
REMARK  101  A    between atoms: _279  and  _282
REMARK  102  A    between atoms: _282  and  _283
REMARK  103  A    between atoms: _286  and  _288
REMARK  104  A    between atoms: _288  and  _289
REMARK  105  A    between atoms: _291  and  _293
REMARK  106  A    between atoms: _293  and  _294
REMARK  107  A    between atoms: _293  and  _296
REMARK  108  A    between atoms: _296  and  _297
REMARK  109  A    between atoms: _299  and  _301
REMARK  110  A    between atoms: _301  and  _302
REMARK  111  A    between atoms: _301  and  _304
REMARK  112  A    between atoms: _304  and  _305
REMARK  113  A    between atoms: _308  and  _310
REMARK  114  A    between atoms: _310  and  _311
REMARK  115  A    between atoms: _310  and  _313
REMARK  116  A    between atoms: _313  and  _314
REMARK  117  A    between atoms: _317  and  _319
REMARK  118  A    between atoms: _319  and  _320
REMARK  119  A    between atoms: _319  and  _322
REMARK  120  A    between atoms: _322  and  _323
REMARK  121  A    between atoms: _327  and  _328
REMARK  122  A    between atoms: _334  and  _335
REMARK  123  A    between atoms: _340  and  _342
REMARK  124  A    between atoms: _342  and  _343
REMARK  125  A    between atoms: _342  and  _345
REMARK  126  A    between atoms: _345  and  _346
REMARK  127  A    between atoms: _349  and  _351
REMARK  128  A    between atoms: _351  and  _352
REMARK  129  A    between atoms: _351  and  _354
REMARK  130  A    between atoms: _354  and  _355
REMARK  131  A    between atoms: _358  and  _360
REMARK  132  A    between atoms: _360  and  _361
REMARK  133  A    between atoms: _360  and  _363
REMARK  134  A    between atoms: _365  and  _367
REMARK  135  A    between atoms: _367  and  _368
REMARK  136  A    between atoms: _367  and  _370
REMARK  137  A    between atoms: _373  and  _375
REMARK  138  A    between atoms: _375  and  _376
REMARK  139  A    between atoms: _375  and  _378
REMARK  140  A    between atoms: _378  and  _379
REMARK  141  A    between atoms: _389  and  _391
REMARK  142  A    between atoms: _391  and  _392
REMARK  143  A    between atoms: _391  and  _394
REMARK  144  A    between atoms: _394  and  _395
REMARK  145  A    between atoms: _400  and  _402
REMARK  146  A    between atoms: _402  and  _403
REMARK  147  A    between atoms: _402  and  _405
REMARK  148  A    between atoms: _405  and  _406
REMARK  149  A    between atoms: _406  and  _407
REMARK  150  A    between atoms: _407  and  _408
REMARK                            x       y       z     vdW  Elec       q    Type
REMARK                         _______ _______ _______ _____ _____    ______ ____
ROOT
ATOM      1  O   HOH     1      -4.860   0.468  10.021  0.00  0.00    +0.000 OA
ENDROOT
TORSDOF 0
REMARK  Name = ../refined-set-2016/3dcc/3dcc_pocket.pdb
REMARK  150 active torsions:
REMARK  status: ('A' for Active; 'I' for Inactive)
REMARK    1  A    between atoms: _1  and  _3
REMARK    2  A    between atoms: _3  and  _4
REMARK    3  A    between atoms: _3  and  _6
REMARK    4  A    between atoms: _6  and  _7
REMARK    5  A    between atoms: _17  and  _19
REMARK    6  A    between atoms: _19  and  _20
REMARK    7  A    between atoms: _19  and  _22
REMARK    8  A    between atoms: _22  and  _23
REMARK    9  A    between atoms: _28  and  _29
REMARK   10  A    between atoms: _31  and  _33
REMARK   11  A    between atoms: _33  and  _34
REMARK   12  A    between atoms: _33  and  _36
REMARK   13  A    between atoms: _36  and  _37
REMARK   14  A    between atoms: _40  and  _41
REMARK   15  A    between atoms: _46  and  _48
REMARK   16  A    between atoms: _48  and  _49
REMARK   17  A    between atoms: _48  and  _51
REMARK   18  A    between atoms: _51  and  _52
REMARK   19  A    between atoms: _57  and  _59
REMARK   20  A    between atoms: _59  and  _60
REMARK   21  A    between atoms: _59  and  _62
REMARK   22  A    between atoms: _62  and  _63
REMARK   23  A    between atoms: _68  and  _70
REMARK   24  A    between atoms: _70  and  _71
REMARK   25  A    between atoms: _70  and  _73
REMARK   26  A    between atoms: _73  and  _74
REMARK   27  A    between atoms: _76  and  _78
REMARK   28  A    between atoms: _78  and  _79
REMARK   29  A    between atoms: _78  and  _81
REMARK   30  A    between atoms: _81  and  _82
REMARK   31  A    between atoms: _82  and  _83
REMARK   32  A    between atoms: _88  and  _90
REMARK   33  A    between atoms: _90  and  _91
REMARK   34  A    between atoms: _90  and  _93
REMARK   35  A    between atoms: _93  and  _94
REMARK   36  A    between atoms: _97  and  _99
REMARK   37  A    between atoms: _99  and  _100
REMARK   38  A    between atoms: _99  and  _102
REMARK   39  A    between atoms: _102  and  _103
REMARK   40  A    between atoms: _103  and  _104
REMARK   41  A    between atoms: _109  and  _111
REMARK   42  A    between atoms: _111  and  _112
REMARK   43  A    between atoms: _111  and  _114
REMARK   44  A    between atoms: _114  and  _115
REMARK   45  A    between atoms: _121  and  _123
REMARK   46  A    between atoms: _134  and  _137
REMARK   47  A    between atoms: _137  and  _138
REMARK   48  A    between atoms: _146  and  _147
REMARK   49  A    between atoms: _155  and  _157
REMARK   50  A    between atoms: _157  and  _158
REMARK   51  A    between atoms: _157  and  _160
REMARK   52  A    between atoms: _160  and  _161
REMARK   53  A    between atoms: _161  and  _162
REMARK   54  A    between atoms: _165  and  _167
REMARK   55  A    between atoms: _167  and  _168
REMARK   56  A    between atoms: _167  and  _170
REMARK   57  A    between atoms: _170  and  _171
REMARK   58  A    between atoms: _176  and  _178
REMARK   59  A    between atoms: _178  and  _179
REMARK   60  A    between atoms: _178  and  _181
REMARK   61  A    between atoms: _181  and  _182
REMARK   62  A    between atoms: _182  and  _183
REMARK   63  A    between atoms: _186  and  _188
REMARK   64  A    between atoms: _188  and  _189
REMARK   65  A    between atoms: _188  and  _191
REMARK   66  A    between atoms: _191  and  _192
REMARK   67  A    between atoms: _195  and  _197
REMARK   68  A    between atoms: _197  and  _198
REMARK   69  A    between atoms: _197  and  _200
REMARK   70  A    between atoms: _200  and  _201
REMARK   71  A    between atoms: _202  and  ZN_417
REMARK   72  A    between atoms: _206  and  _208
REMARK   73  A    between atoms: _208  and  _209
REMARK   74  A    between atoms: _208  and  _211
REMARK   75  A    between atoms: _211  and  _212
REMARK   76  A    between atoms: _215  and  _217
REMARK   77  A    between atoms: _217  and  _218
REMARK   78  A    between atoms: _217  and  _220
REMARK   79  A    between atoms: _223  and  _225
REMARK   80  A    between atoms: _225  and  _226
REMARK   81  A    between atoms: _225  and  _228
REMARK   82  A    between atoms: _228  and  _229
REMARK   83  A    between atoms: _234  and  _236
REMARK   84  A    between atoms: _236  and  _237
REMARK   85  A    between atoms: _236  and  _239
REMARK   86  A    between atoms: _239  and  _240
REMARK   87  A    between atoms: _246  and  _248
REMARK   88  A    between atoms: _248  and  _249
REMARK   89  A    between atoms: _248  and  _251
REMARK   90  A    between atoms: _254  and  _256
REMARK   91  A    between atoms: _256  and  _257
REMARK   92  A    between atoms: _256  and  _259
REMARK   93  A    between atoms: _259  and  _260
REMARK   94  A    between atoms: _263  and  _265
REMARK   95  A    between atoms: _265  and  _266
REMARK   96  A    between atoms: _269  and  _271
REMARK   97  A    between atoms: _271  and  _272
REMARK   98  A    between atoms: _271  and  _274
REMARK   99  A    between atoms: _277  and  _279
REMARK  100  A    between atoms: _279  and  _280
REMARK  101  A    between atoms: _279  and  _282
REMARK  102  A    between atoms: _282  and  _283
REMARK  103  A    between atoms: _286  and  _288
REMARK  104  A    between atoms: _288  and  _289
REMARK  105  A    between atoms: _291  and  _293
REMARK  106  A    between atoms: _293  and  _294
REMARK  107  A    between atoms: _293  and  _296
REMARK  108  A    between atoms: _296  and  _297
REMARK  109  A    between atoms: _299  and  _301
REMARK  110  A    between atoms: _301  and  _302
REMARK  111  A    between atoms: _301  and  _304
REMARK  112  A    between atoms: _304  and  _305
REMARK  113  A    between atoms: _308  and  _310
REMARK  114  A    between atoms: _310  and  _311
REMARK  115  A    between atoms: _310  and  _313
REMARK  116  A    between atoms: _313  and  _314
REMARK  117  A    between atoms: _317  and  _319
REMARK  118  A    between atoms: _319  and  _320
REMARK  119  A    between atoms: _319  and  _322
REMARK  120  A    between atoms: _322  and  _323
REMARK  121  A    between atoms: _327  and  _328
REMARK  122  A    between atoms: _334  and  _335
REMARK  123  A    between atoms: _340  and  _342
REMARK  124  A    between atoms: _342  and  _343
REMARK  125  A    between atoms: _342  and  _345
REMARK  126  A    between atoms: _345  and  _346
REMARK  127  A    between atoms: _349  and  _351
REMARK  128  A    between atoms: _351  and  _352
REMARK  129  A    between atoms: _351  and  _354
REMARK  130  A    between atoms: _354  and  _355
REMARK  131  A    between atoms: _358  and  _360
REMARK  132  A    between atoms: _360  and  _361
REMARK  133  A    between atoms: _360  and  _363
REMARK  134  A    between atoms: _365  and  _367
REMARK  135  A    between atoms: _367  and  _368
REMARK  136  A    between atoms: _367  and  _370
REMARK  137  A    between atoms: _373  and  _375
REMARK  138  A    between atoms: _375  and  _376
REMARK  139  A    between atoms: _375  and  _378
REMARK  140  A    between atoms: _378  and  _379
REMARK  141  A    between atoms: _389  and  _391
REMARK  142  A    between atoms: _391  and  _392
REMARK  143  A    between atoms: _391  and  _394
REMARK  144  A    between atoms: _394  and  _395
REMARK  145  A    between atoms: _400  and  _402
REMARK  146  A    between atoms: _402  and  _403
REMARK  147  A    between atoms: _402  and  _405
REMARK  148  A    between atoms: _405  and  _406
REMARK  149  A    between atoms: _406  and  _407
REMARK  150  A    between atoms: _407  and  _408
REMARK                            x       y       z     vdW  Elec       q    Type
REMARK                         _______ _______ _______ _____ _____    ______ ____
ROOT
ATOM      1  O   HOH     1      -4.694  -1.405  11.825  0.00  0.00    +0.000 OA
ENDROOT
TORSDOF 0
REMARK  Name = ../refined-set-2016/3dcc/3dcc_pocket.pdb
REMARK  150 active torsions:
REMARK  status: ('A' for Active; 'I' for Inactive)
REMARK    1  A    between atoms: _1  and  _3
REMARK    2  A    between atoms: _3  and  _4
REMARK    3  A    between atoms: _3  and  _6
REMARK    4  A    between atoms: _6  and  _7
REMARK    5  A    between atoms: _17  and  _19
REMARK    6  A    between atoms: _19  and  _20
REMARK    7  A    between atoms: _19  and  _22
REMARK    8  A    between atoms: _22  and  _23
REMARK    9  A    between atoms: _28  and  _29
REMARK   10  A    between atoms: _31  and  _33
REMARK   11  A    between atoms: _33  and  _34
REMARK   12  A    between atoms: _33  and  _36
REMARK   13  A    between atoms: _36  and  _37
REMARK   14  A    between atoms: _40  and  _41
REMARK   15  A    between atoms: _46  and  _48
REMARK   16  A    between atoms: _48  and  _49
REMARK   17  A    between atoms: _48  and  _51
REMARK   18  A    between atoms: _51  and  _52
REMARK   19  A    between atoms: _57  and  _59
REMARK   20  A    between atoms: _59  and  _60
REMARK   21  A    between atoms: _59  and  _62
REMARK   22  A    between atoms: _62  and  _63
REMARK   23  A    between atoms: _68  and  _70
REMARK   24  A    between atoms: _70  and  _71
REMARK   25  A    between atoms: _70  and  _73
REMARK   26  A    between atoms: _73  and  _74
REMARK   27  A    between atoms: _76  and  _78
REMARK   28  A    between atoms: _78  and  _79
REMARK   29  A    between atoms: _78  and  _81
REMARK   30  A    between atoms: _81  and  _82
REMARK   31  A    between atoms: _82  and  _83
REMARK   32  A    between atoms: _88  and  _90
REMARK   33  A    between atoms: _90  and  _91
REMARK   34  A    between atoms: _90  and  _93
REMARK   35  A    between atoms: _93  and  _94
REMARK   36  A    between atoms: _97  and  _99
REMARK   37  A    between atoms: _99  and  _100
REMARK   38  A    between atoms: _99  and  _102
REMARK   39  A    between atoms: _102  and  _103
REMARK   40  A    between atoms: _103  and  _104
REMARK   41  A    between atoms: _109  and  _111
REMARK   42  A    between atoms: _111  and  _112
REMARK   43  A    between atoms: _111  and  _114
REMARK   44  A    between atoms: _114  and  _115
REMARK   45  A    between atoms: _121  and  _123
REMARK   46  A    between atoms: _134  and  _137
REMARK   47  A    between atoms: _137  and  _138
REMARK   48  A    between atoms: _146  and  _147
REMARK   49  A    between atoms: _155  and  _157
REMARK   50  A    between atoms: _157  and  _158
REMARK   51  A    between atoms: _157  and  _160
REMARK   52  A    between atoms: _160  and  _161
REMARK   53  A    between atoms: _161  and  _162
REMARK   54  A    between atoms: _165  and  _167
REMARK   55  A    between atoms: _167  and  _168
REMARK   56  A    between atoms: _167  and  _170
REMARK   57  A    between atoms: _170  and  _171
REMARK   58  A    between atoms: _176  and  _178
REMARK   59  A    between atoms: _178  and  _179
REMARK   60  A    between atoms: _178  and  _181
REMARK   61  A    between atoms: _181  and  _182
REMARK   62  A    between atoms: _182  and  _183
REMARK   63  A    between atoms: _186  and  _188
REMARK   64  A    between atoms: _188  and  _189
REMARK   65  A    between atoms: _188  and  _191
REMARK   66  A    between atoms: _191  and  _192
REMARK   67  A    between atoms: _195  and  _197
REMARK   68  A    between atoms: _197  and  _198
REMARK   69  A    between atoms: _197  and  _200
REMARK   70  A    between atoms: _200  and  _201
REMARK   71  A    between atoms: _202  and  ZN_417
REMARK   72  A    between atoms: _206  and  _208
REMARK   73  A    between atoms: _208  and  _209
REMARK   74  A    between atoms: _208  and  _211
REMARK   75  A    between atoms: _211  and  _212
REMARK   76  A    between atoms: _215  and  _217
REMARK   77  A    between atoms: _217  and  _218
REMARK   78  A    between atoms: _217  and  _220
REMARK   79  A    between atoms: _223  and  _225
REMARK   80  A    between atoms: _225  and  _226
REMARK   81  A    between atoms: _225  and  _228
REMARK   82  A    between atoms: _228  and  _229
REMARK   83  A    between atoms: _234  and  _236
REMARK   84  A    between atoms: _236  and  _237
REMARK   85  A    between atoms: _236  and  _239
REMARK   86  A    between atoms: _239  and  _240
REMARK   87  A    between atoms: _246  and  _248
REMARK   88  A    between atoms: _248  and  _249
REMARK   89  A    between atoms: _248  and  _251
REMARK   90  A    between atoms: _254  and  _256
REMARK   91  A    between atoms: _256  and  _257
REMARK   92  A    between atoms: _256  and  _259
REMARK   93  A    between atoms: _259  and  _260
REMARK   94  A    between atoms: _263  and  _265
REMARK   95  A    between atoms: _265  and  _266
REMARK   96  A    between atoms: _269  and  _271
REMARK   97  A    between atoms: _271  and  _272
REMARK   98  A    between atoms: _271  and  _274
REMARK   99  A    between atoms: _277  and  _279
REMARK  100  A    between atoms: _279  and  _280
REMARK  101  A    between atoms: _279  and  _282
REMARK  102  A    between atoms: _282  and  _283
REMARK  103  A    between atoms: _286  and  _288
REMARK  104  A    between atoms: _288  and  _289
REMARK  105  A    between atoms: _291  and  _293
REMARK  106  A    between atoms: _293  and  _294
REMARK  107  A    between atoms: _293  and  _296
REMARK  108  A    between atoms: _296  and  _297
REMARK  109  A    between atoms: _299  and  _301
REMARK  110  A    between atoms: _301  and  _302
REMARK  111  A    between atoms: _301  and  _304
REMARK  112  A    between atoms: _304  and  _305
REMARK  113  A    between atoms: _308  and  _310
REMARK  114  A    between atoms: _310  and  _311
REMARK  115  A    between atoms: _310  and  _313
REMARK  116  A    between atoms: _313  and  _314
REMARK  117  A    between atoms: _317  and  _319
REMARK  118  A    between atoms: _319  and  _320
REMARK  119  A    between atoms: _319  and  _322
REMARK  120  A    between atoms: _322  and  _323
REMARK  121  A    between atoms: _327  and  _328
REMARK  122  A    between atoms: _334  and  _335
REMARK  123  A    between atoms: _340  and  _342
REMARK  124  A    between atoms: _342  and  _343
REMARK  125  A    between atoms: _342  and  _345
REMARK  126  A    between atoms: _345  and  _346
REMARK  127  A    between atoms: _349  and  _351
REMARK  128  A    between atoms: _351  and  _352
REMARK  129  A    between atoms: _351  and  _354
REMARK  130  A    between atoms: _354  and  _355
REMARK  131  A    between atoms: _358  and  _360
REMARK  132  A    between atoms: _360  and  _361
REMARK  133  A    between atoms: _360  and  _363
REMARK  134  A    between atoms: _365  and  _367
REMARK  135  A    between atoms: _367  and  _368
REMARK  136  A    between atoms: _367  and  _370
REMARK  137  A    between atoms: _373  and  _375
REMARK  138  A    between atoms: _375  and  _376
REMARK  139  A    between atoms: _375  and  _378
REMARK  140  A    between atoms: _378  and  _379
REMARK  141  A    between atoms: _389  and  _391
REMARK  142  A    between atoms: _391  and  _392
REMARK  143  A    between atoms: _391  and  _394
REMARK  144  A    between atoms: _394  and  _395
REMARK  145  A    between atoms: _400  and  _402
REMARK  146  A    between atoms: _402  and  _403
REMARK  147  A    between atoms: _402  and  _405
REMARK  148  A    between atoms: _405  and  _406
REMARK  149  A    between atoms: _406  and  _407
REMARK  150  A    between atoms: _407  and  _408
REMARK                            x       y       z     vdW  Elec       q    Type
REMARK                         _______ _______ _______ _____ _____    ______ ____
ROOT
ATOM      1  O   HOH     1      -7.176   5.534   6.751  0.00  0.00    +0.000 OA
ENDROOT
TORSDOF 0
REMARK  Name = ../refined-set-2016/3dcc/3dcc_pocket.pdb
REMARK  150 active torsions:
REMARK  status: ('A' for Active; 'I' for Inactive)
REMARK    1  A    between atoms: _1  and  _3
REMARK    2  A    between atoms: _3  and  _4
REMARK    3  A    between atoms: _3  and  _6
REMARK    4  A    between atoms: _6  and  _7
REMARK    5  A    between atoms: _17  and  _19
REMARK    6  A    between atoms: _19  and  _20
REMARK    7  A    between atoms: _19  and  _22
REMARK    8  A    between atoms: _22  and  _23
REMARK    9  A    between atoms: _28  and  _29
REMARK   10  A    between atoms: _31  and  _33
REMARK   11  A    between atoms: _33  and  _34
REMARK   12  A    between atoms: _33  and  _36
REMARK   13  A    between atoms: _36  and  _37
REMARK   14  A    between atoms: _40  and  _41
REMARK   15  A    between atoms: _46  and  _48
REMARK   16  A    between atoms: _48  and  _49
REMARK   17  A    between atoms: _48  and  _51
REMARK   18  A    between atoms: _51  and  _52
REMARK   19  A    between atoms: _57  and  _59
REMARK   20  A    between atoms: _59  and  _60
REMARK   21  A    between atoms: _59  and  _62
REMARK   22  A    between atoms: _62  and  _63
REMARK   23  A    between atoms: _68  and  _70
REMARK   24  A    between atoms: _70  and  _71
REMARK   25  A    between atoms: _70  and  _73
REMARK   26  A    between atoms: _73  and  _74
REMARK   27  A    between atoms: _76  and  _78
REMARK   28  A    between atoms: _78  and  _79
REMARK   29  A    between atoms: _78  and  _81
REMARK   30  A    between atoms: _81  and  _82
REMARK   31  A    between atoms: _82  and  _83
REMARK   32  A    between atoms: _88  and  _90
REMARK   33  A    between atoms: _90  and  _91
REMARK   34  A    between atoms: _90  and  _93
REMARK   35  A    between atoms: _93  and  _94
REMARK   36  A    between atoms: _97  and  _99
REMARK   37  A    between atoms: _99  and  _100
REMARK   38  A    between atoms: _99  and  _102
REMARK   39  A    between atoms: _102  and  _103
REMARK   40  A    between atoms: _103  and  _104
REMARK   41  A    between atoms: _109  and  _111
REMARK   42  A    between atoms: _111  and  _112
REMARK   43  A    between atoms: _111  and  _114
REMARK   44  A    between atoms: _114  and  _115
REMARK   45  A    between atoms: _121  and  _123
REMARK   46  A    between atoms: _134  and  _137
REMARK   47  A    between atoms: _137  and  _138
REMARK   48  A    between atoms: _146  and  _147
REMARK   49  A    between atoms: _155  and  _157
REMARK   50  A    between atoms: _157  and  _158
REMARK   51  A    between atoms: _157  and  _160
REMARK   52  A    between atoms: _160  and  _161
REMARK   53  A    between atoms: _161  and  _162
REMARK   54  A    between atoms: _165  and  _167
REMARK   55  A    between atoms: _167  and  _168
REMARK   56  A    between atoms: _167  and  _170
REMARK   57  A    between atoms: _170  and  _171
REMARK   58  A    between atoms: _176  and  _178
REMARK   59  A    between atoms: _178  and  _179
REMARK   60  A    between atoms: _178  and  _181
REMARK   61  A    between atoms: _181  and  _182
REMARK   62  A    between atoms: _182  and  _183
REMARK   63  A    between atoms: _186  and  _188
REMARK   64  A    between atoms: _188  and  _189
REMARK   65  A    between atoms: _188  and  _191
REMARK   66  A    between atoms: _191  and  _192
REMARK   67  A    between atoms: _195  and  _197
REMARK   68  A    between atoms: _197  and  _198
REMARK   69  A    between atoms: _197  and  _200
REMARK   70  A    between atoms: _200  and  _201
REMARK   71  A    between atoms: _202  and  ZN_417
REMARK   72  A    between atoms: _206  and  _208
REMARK   73  A    between atoms: _208  and  _209
REMARK   74  A    between atoms: _208  and  _211
REMARK   75  A    between atoms: _211  and  _212
REMARK   76  A    between atoms: _215  and  _217
REMARK   77  A    between atoms: _217  and  _218
REMARK   78  A    between atoms: _217  and  _220
REMARK   79  A    between atoms: _223  and  _225
REMARK   80  A    between atoms: _225  and  _226
REMARK   81  A    between atoms: _225  and  _228
REMARK   82  A    between atoms: _228  and  _229
REMARK   83  A    between atoms: _234  and  _236
REMARK   84  A    between atoms: _236  and  _237
REMARK   85  A    between atoms: _236  and  _239
REMARK   86  A    between atoms: _239  and  _240
REMARK   87  A    between atoms: _246  and  _248
REMARK   88  A    between atoms: _248  and  _249
REMARK   89  A    between atoms: _248  and  _251
REMARK   90  A    between atoms: _254  and  _256
REMARK   91  A    between atoms: _256  and  _257
REMARK   92  A    between atoms: _256  and  _259
REMARK   93  A    between atoms: _259  and  _260
REMARK   94  A    between atoms: _263  and  _265
REMARK   95  A    between atoms: _265  and  _266
REMARK   96  A    between atoms: _269  and  _271
REMARK   97  A    between atoms: _271  and  _272
REMARK   98  A    between atoms: _271  and  _274
REMARK   99  A    between atoms: _277  and  _279
REMARK  100  A    between atoms: _279  and  _280
REMARK  101  A    between atoms: _279  and  _282
REMARK  102  A    between atoms: _282  and  _283
REMARK  103  A    between atoms: _286  and  _288
REMARK  104  A    between atoms: _288  and  _289
REMARK  105  A    between atoms: _291  and  _293
REMARK  106  A    between atoms: _293  and  _294
REMARK  107  A    between atoms: _293  and  _296
REMARK  108  A    between atoms: _296  and  _297
REMARK  109  A    between atoms: _299  and  _301
REMARK  110  A    between atoms: _301  and  _302
REMARK  111  A    between atoms: _301  and  _304
REMARK  112  A    between atoms: _304  and  _305
REMARK  113  A    between atoms: _308  and  _310
REMARK  114  A    between atoms: _310  and  _311
REMARK  115  A    between atoms: _310  and  _313
REMARK  116  A    between atoms: _313  and  _314
REMARK  117  A    between atoms: _317  and  _319
REMARK  118  A    between atoms: _319  and  _320
REMARK  119  A    between atoms: _319  and  _322
REMARK  120  A    between atoms: _322  and  _323
REMARK  121  A    between atoms: _327  and  _328
REMARK  122  A    between atoms: _334  and  _335
REMARK  123  A    between atoms: _340  and  _342
REMARK  124  A    between atoms: _342  and  _343
REMARK  125  A    between atoms: _342  and  _345
REMARK  126  A    between atoms: _345  and  _346
REMARK  127  A    between atoms: _349  and  _351
REMARK  128  A    between atoms: _351  and  _352
REMARK  129  A    between atoms: _351  and  _354
REMARK  130  A    between atoms: _354  and  _355
REMARK  131  A    between atoms: _358  and  _360
REMARK  132  A    between atoms: _360  and  _361
REMARK  133  A    between atoms: _360  and  _363
REMARK  134  A    between atoms: _365  and  _367
REMARK  135  A    between atoms: _367  and  _368
REMARK  136  A    between atoms: _367  and  _370
REMARK  137  A    between atoms: _373  and  _375
REMARK  138  A    between atoms: _375  and  _376
REMARK  139  A    between atoms: _375  and  _378
REMARK  140  A    between atoms: _378  and  _379
REMARK  141  A    between atoms: _389  and  _391
REMARK  142  A    between atoms: _391  and  _392
REMARK  143  A    between atoms: _391  and  _394
REMARK  144  A    between atoms: _394  and  _395
REMARK  145  A    between atoms: _400  and  _402
REMARK  146  A    between atoms: _402  and  _403
REMARK  147  A    between atoms: _402  and  _405
REMARK  148  A    between atoms: _405  and  _406
REMARK  149  A    between atoms: _406  and  _407
REMARK  150  A    between atoms: _407  and  _408
REMARK                            x       y       z     vdW  Elec       q    Type
REMARK                         _______ _______ _______ _____ _____    ______ ____
ROOT
ATOM      1  O   HOH     1      -2.543   1.705  11.948  0.00  0.00    +0.000 OA
ENDROOT
TORSDOF 0
REMARK  Name = ../refined-set-2016/3dcc/3dcc_pocket.pdb
REMARK  150 active torsions:
REMARK  status: ('A' for Active; 'I' for Inactive)
REMARK    1  A    between atoms: _1  and  _3
REMARK    2  A    between atoms: _3  and  _4
REMARK    3  A    between atoms: _3  and  _6
REMARK    4  A    between atoms: _6  and  _7
REMARK    5  A    between atoms: _17  and  _19
REMARK    6  A    between atoms: _19  and  _20
REMARK    7  A    between atoms: _19  and  _22
REMARK    8  A    between atoms: _22  and  _23
REMARK    9  A    between atoms: _28  and  _29
REMARK   10  A    between atoms: _31  and  _33
REMARK   11  A    between atoms: _33  and  _34
REMARK   12  A    between atoms: _33  and  _36
REMARK   13  A    between atoms: _36  and  _37
REMARK   14  A    between atoms: _40  and  _41
REMARK   15  A    between atoms: _46  and  _48
REMARK   16  A    between atoms: _48  and  _49
REMARK   17  A    between atoms: _48  and  _51
REMARK   18  A    between atoms: _51  and  _52
REMARK   19  A    between atoms: _57  and  _59
REMARK   20  A    between atoms: _59  and  _60
REMARK   21  A    between atoms: _59  and  _62
REMARK   22  A    between atoms: _62  and  _63
REMARK   23  A    between atoms: _68  and  _70
REMARK   24  A    between atoms: _70  and  _71
REMARK   25  A    between atoms: _70  and  _73
REMARK   26  A    between atoms: _73  and  _74
REMARK   27  A    between atoms: _76  and  _78
REMARK   28  A    between atoms: _78  and  _79
REMARK   29  A    between atoms: _78  and  _81
REMARK   30  A    between atoms: _81  and  _82
REMARK   31  A    between atoms: _82  and  _83
REMARK   32  A    between atoms: _88  and  _90
REMARK   33  A    between atoms: _90  and  _91
REMARK   34  A    between atoms: _90  and  _93
REMARK   35  A    between atoms: _93  and  _94
REMARK   36  A    between atoms: _97  and  _99
REMARK   37  A    between atoms: _99  and  _100
REMARK   38  A    between atoms: _99  and  _102
REMARK   39  A    between atoms: _102  and  _103
REMARK   40  A    between atoms: _103  and  _104
REMARK   41  A    between atoms: _109  and  _111
REMARK   42  A    between atoms: _111  and  _112
REMARK   43  A    between atoms: _111  and  _114
REMARK   44  A    between atoms: _114  and  _115
REMARK   45  A    between atoms: _121  and  _123
REMARK   46  A    between atoms: _134  and  _137
REMARK   47  A    between atoms: _137  and  _138
REMARK   48  A    between atoms: _146  and  _147
REMARK   49  A    between atoms: _155  and  _157
REMARK   50  A    between atoms: _157  and  _158
REMARK   51  A    between atoms: _157  and  _160
REMARK   52  A    between atoms: _160  and  _161
REMARK   53  A    between atoms: _161  and  _162
REMARK   54  A    between atoms: _165  and  _167
REMARK   55  A    between atoms: _167  and  _168
REMARK   56  A    between atoms: _167  and  _170
REMARK   57  A    between atoms: _170  and  _171
REMARK   58  A    between atoms: _176  and  _178
REMARK   59  A    between atoms: _178  and  _179
REMARK   60  A    between atoms: _178  and  _181
REMARK   61  A    between atoms: _181  and  _182
REMARK   62  A    between atoms: _182  and  _183
REMARK   63  A    between atoms: _186  and  _188
REMARK   64  A    between atoms: _188  and  _189
REMARK   65  A    between atoms: _188  and  _191
REMARK   66  A    between atoms: _191  and  _192
REMARK   67  A    between atoms: _195  and  _197
REMARK   68  A    between atoms: _197  and  _198
REMARK   69  A    between atoms: _197  and  _200
REMARK   70  A    between atoms: _200  and  _201
REMARK   71  A    between atoms: _202  and  ZN_417
REMARK   72  A    between atoms: _206  and  _208
REMARK   73  A    between atoms: _208  and  _209
REMARK   74  A    between atoms: _208  and  _211
REMARK   75  A    between atoms: _211  and  _212
REMARK   76  A    between atoms: _215  and  _217
REMARK   77  A    between atoms: _217  and  _218
REMARK   78  A    between atoms: _217  and  _220
REMARK   79  A    between atoms: _223  and  _225
REMARK   80  A    between atoms: _225  and  _226
REMARK   81  A    between atoms: _225  and  _228
REMARK   82  A    between atoms: _228  and  _229
REMARK   83  A    between atoms: _234  and  _236
REMARK   84  A    between atoms: _236  and  _237
REMARK   85  A    between atoms: _236  and  _239
REMARK   86  A    between atoms: _239  and  _240
REMARK   87  A    between atoms: _246  and  _248
REMARK   88  A    between atoms: _248  and  _249
REMARK   89  A    between atoms: _248  and  _251
REMARK   90  A    between atoms: _254  and  _256
REMARK   91  A    between atoms: _256  and  _257
REMARK   92  A    between atoms: _256  and  _259
REMARK   93  A    between atoms: _259  and  _260
REMARK   94  A    between atoms: _263  and  _265
REMARK   95  A    between atoms: _265  and  _266
REMARK   96  A    between atoms: _269  and  _271
REMARK   97  A    between atoms: _271  and  _272
REMARK   98  A    between atoms: _271  and  _274
REMARK   99  A    between atoms: _277  and  _279
REMARK  100  A    between atoms: _279  and  _280
REMARK  101  A    between atoms: _279  and  _282
REMARK  102  A    between atoms: _282  and  _283
REMARK  103  A    between atoms: _286  and  _288
REMARK  104  A    between atoms: _288  and  _289
REMARK  105  A    between atoms: _291  and  _293
REMARK  106  A    between atoms: _293  and  _294
REMARK  107  A    between atoms: _293  and  _296
REMARK  108  A    between atoms: _296  and  _297
REMARK  109  A    between atoms: _299  and  _301
REMARK  110  A    between atoms: _301  and  _302
REMARK  111  A    between atoms: _301  and  _304
REMARK  112  A    between atoms: _304  and  _305
REMARK  113  A    between atoms: _308  and  _310
REMARK  114  A    between atoms: _310  and  _311
REMARK  115  A    between atoms: _310  and  _313
REMARK  116  A    between atoms: _313  and  _314
REMARK  117  A    between atoms: _317  and  _319
REMARK  118  A    between atoms: _319  and  _320
REMARK  119  A    between atoms: _319  and  _322
REMARK  120  A    between atoms: _322  and  _323
REMARK  121  A    between atoms: _327  and  _328
REMARK  122  A    between atoms: _334  and  _335
REMARK  123  A    between atoms: _340  and  _342
REMARK  124  A    between atoms: _342  and  _343
REMARK  125  A    between atoms: _342  and  _345
REMARK  126  A    between atoms: _345  and  _346
REMARK  127  A    between atoms: _349  and  _351
REMARK  128  A    between atoms: _351  and  _352
REMARK  129  A    between atoms: _351  and  _354
REMARK  130  A    between atoms: _354  and  _355
REMARK  131  A    between atoms: _358  and  _360
REMARK  132  A    between atoms: _360  and  _361
REMARK  133  A    between atoms: _360  and  _363
REMARK  134  A    between atoms: _365  and  _367
REMARK  135  A    between atoms: _367  and  _368
REMARK  136  A    between atoms: _367  and  _370
REMARK  137  A    between atoms: _373  and  _375
REMARK  138  A    between atoms: _375  and  _376
REMARK  139  A    between atoms: _375  and  _378
REMARK  140  A    between atoms: _378  and  _379
REMARK  141  A    between atoms: _389  and  _391
REMARK  142  A    between atoms: _391  and  _392
REMARK  143  A    between atoms: _391  and  _394
REMARK  144  A    between atoms: _394  and  _395
REMARK  145  A    between atoms: _400  and  _402
REMARK  146  A    between atoms: _402  and  _403
REMARK  147  A    between atoms: _402  and  _405
REMARK  148  A    between atoms: _405  and  _406
REMARK  149  A    between atoms: _406  and  _407
REMARK  150  A    between atoms: _407  and  _408
REMARK                            x       y       z     vdW  Elec       q    Type
REMARK                         _______ _______ _______ _____ _____    ______ ____
ROOT
ATOM      1  O   HOH     1     -10.524   8.791   7.821  0.00  0.00    +0.000 OA
ENDROOT
TORSDOF 0
REMARK  Name = ../refined-set-2016/3dcc/3dcc_pocket.pdb
REMARK  150 active torsions:
REMARK  status: ('A' for Active; 'I' for Inactive)
REMARK    1  A    between atoms: _1  and  _3
REMARK    2  A    between atoms: _3  and  _4
REMARK    3  A    between atoms: _3  and  _6
REMARK    4  A    between atoms: _6  and  _7
REMARK    5  A    between atoms: _17  and  _19
REMARK    6  A    between atoms: _19  and  _20
REMARK    7  A    between atoms: _19  and  _22
REMARK    8  A    between atoms: _22  and  _23
REMARK    9  A    between atoms: _28  and  _29
REMARK   10  A    between atoms: _31  and  _33
REMARK   11  A    between atoms: _33  and  _34
REMARK   12  A    between atoms: _33  and  _36
REMARK   13  A    between atoms: _36  and  _37
REMARK   14  A    between atoms: _40  and  _41
REMARK   15  A    between atoms: _46  and  _48
REMARK   16  A    between atoms: _48  and  _49
REMARK   17  A    between atoms: _48  and  _51
REMARK   18  A    between atoms: _51  and  _52
REMARK   19  A    between atoms: _57  and  _59
REMARK   20  A    between atoms: _59  and  _60
REMARK   21  A    between atoms: _59  and  _62
REMARK   22  A    between atoms: _62  and  _63
REMARK   23  A    between atoms: _68  and  _70
REMARK   24  A    between atoms: _70  and  _71
REMARK   25  A    between atoms: _70  and  _73
REMARK   26  A    between atoms: _73  and  _74
REMARK   27  A    between atoms: _76  and  _78
REMARK   28  A    between atoms: _78  and  _79
REMARK   29  A    between atoms: _78  and  _81
REMARK   30  A    between atoms: _81  and  _82
REMARK   31  A    between atoms: _82  and  _83
REMARK   32  A    between atoms: _88  and  _90
REMARK   33  A    between atoms: _90  and  _91
REMARK   34  A    between atoms: _90  and  _93
REMARK   35  A    between atoms: _93  and  _94
REMARK   36  A    between atoms: _97  and  _99
REMARK   37  A    between atoms: _99  and  _100
REMARK   38  A    between atoms: _99  and  _102
REMARK   39  A    between atoms: _102  and  _103
REMARK   40  A    between atoms: _103  and  _104
REMARK   41  A    between atoms: _109  and  _111
REMARK   42  A    between atoms: _111  and  _112
REMARK   43  A    between atoms: _111  and  _114
REMARK   44  A    between atoms: _114  and  _115
REMARK   45  A    between atoms: _121  and  _123
REMARK   46  A    between atoms: _134  and  _137
REMARK   47  A    between atoms: _137  and  _138
REMARK   48  A    between atoms: _146  and  _147
REMARK   49  A    between atoms: _155  and  _157
REMARK   50  A    between atoms: _157  and  _158
REMARK   51  A    between atoms: _157  and  _160
REMARK   52  A    between atoms: _160  and  _161
REMARK   53  A    between atoms: _161  and  _162
REMARK   54  A    between atoms: _165  and  _167
REMARK   55  A    between atoms: _167  and  _168
REMARK   56  A    between atoms: _167  and  _170
REMARK   57  A    between atoms: _170  and  _171
REMARK   58  A    between atoms: _176  and  _178
REMARK   59  A    between atoms: _178  and  _179
REMARK   60  A    between atoms: _178  and  _181
REMARK   61  A    between atoms: _181  and  _182
REMARK   62  A    between atoms: _182  and  _183
REMARK   63  A    between atoms: _186  and  _188
REMARK   64  A    between atoms: _188  and  _189
REMARK   65  A    between atoms: _188  and  _191
REMARK   66  A    between atoms: _191  and  _192
REMARK   67  A    between atoms: _195  and  _197
REMARK   68  A    between atoms: _197  and  _198
REMARK   69  A    between atoms: _197  and  _200
REMARK   70  A    between atoms: _200  and  _201
REMARK   71  A    between atoms: _202  and  ZN_417
REMARK   72  A    between atoms: _206  and  _208
REMARK   73  A    between atoms: _208  and  _209
REMARK   74  A    between atoms: _208  and  _211
REMARK   75  A    between atoms: _211  and  _212
REMARK   76  A    between atoms: _215  and  _217
REMARK   77  A    between atoms: _217  and  _218
REMARK   78  A    between atoms: _217  and  _220
REMARK   79  A    between atoms: _223  and  _225
REMARK   80  A    between atoms: _225  and  _226
REMARK   81  A    between atoms: _225  and  _228
REMARK   82  A    between atoms: _228  and  _229
REMARK   83  A    between atoms: _234  and  _236
REMARK   84  A    between atoms: _236  and  _237
REMARK   85  A    between atoms: _236  and  _239
REMARK   86  A    between atoms: _239  and  _240
REMARK   87  A    between atoms: _246  and  _248
REMARK   88  A    between atoms: _248  and  _249
REMARK   89  A    between atoms: _248  and  _251
REMARK   90  A    between atoms: _254  and  _256
REMARK   91  A    between atoms: _256  and  _257
REMARK   92  A    between atoms: _256  and  _259
REMARK   93  A    between atoms: _259  and  _260
REMARK   94  A    between atoms: _263  and  _265
REMARK   95  A    between atoms: _265  and  _266
REMARK   96  A    between atoms: _269  and  _271
REMARK   97  A    between atoms: _271  and  _272
REMARK   98  A    between atoms: _271  and  _274
REMARK   99  A    between atoms: _277  and  _279
REMARK  100  A    between atoms: _279  and  _280
REMARK  101  A    between atoms: _279  and  _282
REMARK  102  A    between atoms: _282  and  _283
REMARK  103  A    between atoms: _286  and  _288
REMARK  104  A    between atoms: _288  and  _289
REMARK  105  A    between atoms: _291  and  _293
REMARK  106  A    between atoms: _293  and  _294
REMARK  107  A    between atoms: _293  and  _296
REMARK  108  A    between atoms: _296  and  _297
REMARK  109  A    between atoms: _299  and  _301
REMARK  110  A    between atoms: _301  and  _302
REMARK  111  A    between atoms: _301  and  _304
REMARK  112  A    between atoms: _304  and  _305
REMARK  113  A    between atoms: _308  and  _310
REMARK  114  A    between atoms: _310  and  _311
REMARK  115  A    between atoms: _310  and  _313
REMARK  116  A    between atoms: _313  and  _314
REMARK  117  A    between atoms: _317  and  _319
REMARK  118  A    between atoms: _319  and  _320
REMARK  119  A    between atoms: _319  and  _322
REMARK  120  A    between atoms: _322  and  _323
REMARK  121  A    between atoms: _327  and  _328
REMARK  122  A    between atoms: _334  and  _335
REMARK  123  A    between atoms: _340  and  _342
REMARK  124  A    between atoms: _342  and  _343
REMARK  125  A    between atoms: _342  and  _345
REMARK  126  A    between atoms: _345  and  _346
REMARK  127  A    between atoms: _349  and  _351
REMARK  128  A    between atoms: _351  and  _352
REMARK  129  A    between atoms: _351  and  _354
REMARK  130  A    between atoms: _354  and  _355
REMARK  131  A    between atoms: _358  and  _360
REMARK  132  A    between atoms: _360  and  _361
REMARK  133  A    between atoms: _360  and  _363
REMARK  134  A    between atoms: _365  and  _367
REMARK  135  A    between atoms: _367  and  _368
REMARK  136  A    between atoms: _367  and  _370
REMARK  137  A    between atoms: _373  and  _375
REMARK  138  A    between atoms: _375  and  _376
REMARK  139  A    between atoms: _375  and  _378
REMARK  140  A    between atoms: _378  and  _379
REMARK  141  A    between atoms: _389  and  _391
REMARK  142  A    between atoms: _391  and  _392
REMARK  143  A    between atoms: _391  and  _394
REMARK  144  A    between atoms: _394  and  _395
REMARK  145  A    between atoms: _400  and  _402
REMARK  146  A    between atoms: _402  and  _403
REMARK  147  A    between atoms: _402  and  _405
REMARK  148  A    between atoms: _405  and  _406
REMARK  149  A    between atoms: _406  and  _407
REMARK  150  A    between atoms: _407  and  _408
REMARK                            x       y       z     vdW  Elec       q    Type
REMARK                         _______ _______ _______ _____ _____    ______ ____
ROOT
ATOM      1  O   HOH     1      -4.715   7.235   6.002  0.00  0.00    +0.000 OA
ENDROOT
TORSDOF 0
REMARK  Name = ../refined-set-2016/3dcc/3dcc_pocket.pdb
REMARK  150 active torsions:
REMARK  status: ('A' for Active; 'I' for Inactive)
REMARK    1  A    between atoms: _1  and  _3
REMARK    2  A    between atoms: _3  and  _4
REMARK    3  A    between atoms: _3  and  _6
REMARK    4  A    between atoms: _6  and  _7
REMARK    5  A    between atoms: _17  and  _19
REMARK    6  A    between atoms: _19  and  _20
REMARK    7  A    between atoms: _19  and  _22
REMARK    8  A    between atoms: _22  and  _23
REMARK    9  A    between atoms: _28  and  _29
REMARK   10  A    between atoms: _31  and  _33
REMARK   11  A    between atoms: _33  and  _34
REMARK   12  A    between atoms: _33  and  _36
REMARK   13  A    between atoms: _36  and  _37
REMARK   14  A    between atoms: _40  and  _41
REMARK   15  A    between atoms: _46  and  _48
REMARK   16  A    between atoms: _48  and  _49
REMARK   17  A    between atoms: _48  and  _51
REMARK   18  A    between atoms: _51  and  _52
REMARK   19  A    between atoms: _57  and  _59
REMARK   20  A    between atoms: _59  and  _60
REMARK   21  A    between atoms: _59  and  _62
REMARK   22  A    between atoms: _62  and  _63
REMARK   23  A    between atoms: _68  and  _70
REMARK   24  A    between atoms: _70  and  _71
REMARK   25  A    between atoms: _70  and  _73
REMARK   26  A    between atoms: _73  and  _74
REMARK   27  A    between atoms: _76  and  _78
REMARK   28  A    between atoms: _78  and  _79
REMARK   29  A    between atoms: _78  and  _81
REMARK   30  A    between atoms: _81  and  _82
REMARK   31  A    between atoms: _82  and  _83
REMARK   32  A    between atoms: _88  and  _90
REMARK   33  A    between atoms: _90  and  _91
REMARK   34  A    between atoms: _90  and  _93
REMARK   35  A    between atoms: _93  and  _94
REMARK   36  A    between atoms: _97  and  _99
REMARK   37  A    between atoms: _99  and  _100
REMARK   38  A    between atoms: _99  and  _102
REMARK   39  A    between atoms: _102  and  _103
REMARK   40  A    between atoms: _103  and  _104
REMARK   41  A    between atoms: _109  and  _111
REMARK   42  A    between atoms: _111  and  _112
REMARK   43  A    between atoms: _111  and  _114
REMARK   44  A    between atoms: _114  and  _115
REMARK   45  A    between atoms: _121  and  _123
REMARK   46  A    between atoms: _134  and  _137
REMARK   47  A    between atoms: _137  and  _138
REMARK   48  A    between atoms: _146  and  _147
REMARK   49  A    between atoms: _155  and  _157
REMARK   50  A    between atoms: _157  and  _158
REMARK   51  A    between atoms: _157  and  _160
REMARK   52  A    between atoms: _160  and  _161
REMARK   53  A    between atoms: _161  and  _162
REMARK   54  A    between atoms: _165  and  _167
REMARK   55  A    between atoms: _167  and  _168
REMARK   56  A    between atoms: _167  and  _170
REMARK   57  A    between atoms: _170  and  _171
REMARK   58  A    between atoms: _176  and  _178
REMARK   59  A    between atoms: _178  and  _179
REMARK   60  A    between atoms: _178  and  _181
REMARK   61  A    between atoms: _181  and  _182
REMARK   62  A    between atoms: _182  and  _183
REMARK   63  A    between atoms: _186  and  _188
REMARK   64  A    between atoms: _188  and  _189
REMARK   65  A    between atoms: _188  and  _191
REMARK   66  A    between atoms: _191  and  _192
REMARK   67  A    between atoms: _195  and  _197
REMARK   68  A    between atoms: _197  and  _198
REMARK   69  A    between atoms: _197  and  _200
REMARK   70  A    between atoms: _200  and  _201
REMARK   71  A    between atoms: _202  and  ZN_417
REMARK   72  A    between atoms: _206  and  _208
REMARK   73  A    between atoms: _208  and  _209
REMARK   74  A    between atoms: _208  and  _211
REMARK   75  A    between atoms: _211  and  _212
REMARK   76  A    between atoms: _215  and  _217
REMARK   77  A    between atoms: _217  and  _218
REMARK   78  A    between atoms: _217  and  _220
REMARK   79  A    between atoms: _223  and  _225
REMARK   80  A    between atoms: _225  and  _226
REMARK   81  A    between atoms: _225  and  _228
REMARK   82  A    between atoms: _228  and  _229
REMARK   83  A    between atoms: _234  and  _236
REMARK   84  A    between atoms: _236  and  _237
REMARK   85  A    between atoms: _236  and  _239
REMARK   86  A    between atoms: _239  and  _240
REMARK   87  A    between atoms: _246  and  _248
REMARK   88  A    between atoms: _248  and  _249
REMARK   89  A    between atoms: _248  and  _251
REMARK   90  A    between atoms: _254  and  _256
REMARK   91  A    between atoms: _256  and  _257
REMARK   92  A    between atoms: _256  and  _259
REMARK   93  A    between atoms: _259  and  _260
REMARK   94  A    between atoms: _263  and  _265
REMARK   95  A    between atoms: _265  and  _266
REMARK   96  A    between atoms: _269  and  _271
REMARK   97  A    between atoms: _271  and  _272
REMARK   98  A    between atoms: _271  and  _274
REMARK   99  A    between atoms: _277  and  _279
REMARK  100  A    between atoms: _279  and  _280
REMARK  101  A    between atoms: _279  and  _282
REMARK  102  A    between atoms: _282  and  _283
REMARK  103  A    between atoms: _286  and  _288
REMARK  104  A    between atoms: _288  and  _289
REMARK  105  A    between atoms: _291  and  _293
REMARK  106  A    between atoms: _293  and  _294
REMARK  107  A    between atoms: _293  and  _296
REMARK  108  A    between atoms: _296  and  _297
REMARK  109  A    between atoms: _299  and  _301
REMARK  110  A    between atoms: _301  and  _302
REMARK  111  A    between atoms: _301  and  _304
REMARK  112  A    between atoms: _304  and  _305
REMARK  113  A    between atoms: _308  and  _310
REMARK  114  A    between atoms: _310  and  _311
REMARK  115  A    between atoms: _310  and  _313
REMARK  116  A    between atoms: _313  and  _314
REMARK  117  A    between atoms: _317  and  _319
REMARK  118  A    between atoms: _319  and  _320
REMARK  119  A    between atoms: _319  and  _322
REMARK  120  A    between atoms: _322  and  _323
REMARK  121  A    between atoms: _327  and  _328
REMARK  122  A    between atoms: _334  and  _335
REMARK  123  A    between atoms: _340  and  _342
REMARK  124  A    between atoms: _342  and  _343
REMARK  125  A    between atoms: _342  and  _345
REMARK  126  A    between atoms: _345  and  _346
REMARK  127  A    between atoms: _349  and  _351
REMARK  128  A    between atoms: _351  and  _352
REMARK  129  A    between atoms: _351  and  _354
REMARK  130  A    between atoms: _354  and  _355
REMARK  131  A    between atoms: _358  and  _360
REMARK  132  A    between atoms: _360  and  _361
REMARK  133  A    between atoms: _360  and  _363
REMARK  134  A    between atoms: _365  and  _367
REMARK  135  A    between atoms: _367  and  _368
REMARK  136  A    between atoms: _367  and  _370
REMARK  137  A    between atoms: _373  and  _375
REMARK  138  A    between atoms: _375  and  _376
REMARK  139  A    between atoms: _375  and  _378
REMARK  140  A    between atoms: _378  and  _379
REMARK  141  A    between atoms: _389  and  _391
REMARK  142  A    between atoms: _391  and  _392
REMARK  143  A    between atoms: _391  and  _394
REMARK  144  A    between atoms: _394  and  _395
REMARK  145  A    between atoms: _400  and  _402
REMARK  146  A    between atoms: _402  and  _403
REMARK  147  A    between atoms: _402  and  _405
REMARK  148  A    between atoms: _405  and  _406
REMARK  149  A    between atoms: _406  and  _407
REMARK  150  A    between atoms: _407  and  _408
REMARK                            x       y       z     vdW  Elec       q    Type
REMARK                         _______ _______ _______ _____ _____    ______ ____
ROOT
ATOM      1  O   HOH     1      -6.399   8.650   5.346  0.00  0.00    +0.000 OA
ENDROOT
TORSDOF 0
REMARK  Name = ../refined-set-2016/3dcc/3dcc_pocket.pdb
REMARK  150 active torsions:
REMARK  status: ('A' for Active; 'I' for Inactive)
REMARK    1  A    between atoms: _1  and  _3
REMARK    2  A    between atoms: _3  and  _4
REMARK    3  A    between atoms: _3  and  _6
REMARK    4  A    between atoms: _6  and  _7
REMARK    5  A    between atoms: _17  and  _19
REMARK    6  A    between atoms: _19  and  _20
REMARK    7  A    between atoms: _19  and  _22
REMARK    8  A    between atoms: _22  and  _23
REMARK    9  A    between atoms: _28  and  _29
REMARK   10  A    between atoms: _31  and  _33
REMARK   11  A    between atoms: _33  and  _34
REMARK   12  A    between atoms: _33  and  _36
REMARK   13  A    between atoms: _36  and  _37
REMARK   14  A    between atoms: _40  and  _41
REMARK   15  A    between atoms: _46  and  _48
REMARK   16  A    between atoms: _48  and  _49
REMARK   17  A    between atoms: _48  and  _51
REMARK   18  A    between atoms: _51  and  _52
REMARK   19  A    between atoms: _57  and  _59
REMARK   20  A    between atoms: _59  and  _60
REMARK   21  A    between atoms: _59  and  _62
REMARK   22  A    between atoms: _62  and  _63
REMARK   23  A    between atoms: _68  and  _70
REMARK   24  A    between atoms: _70  and  _71
REMARK   25  A    between atoms: _70  and  _73
REMARK   26  A    between atoms: _73  and  _74
REMARK   27  A    between atoms: _76  and  _78
REMARK   28  A    between atoms: _78  and  _79
REMARK   29  A    between atoms: _78  and  _81
REMARK   30  A    between atoms: _81  and  _82
REMARK   31  A    between atoms: _82  and  _83
REMARK   32  A    between atoms: _88  and  _90
REMARK   33  A    between atoms: _90  and  _91
REMARK   34  A    between atoms: _90  and  _93
REMARK   35  A    between atoms: _93  and  _94
REMARK   36  A    between atoms: _97  and  _99
REMARK   37  A    between atoms: _99  and  _100
REMARK   38  A    between atoms: _99  and  _102
REMARK   39  A    between atoms: _102  and  _103
REMARK   40  A    between atoms: _103  and  _104
REMARK   41  A    between atoms: _109  and  _111
REMARK   42  A    between atoms: _111  and  _112
REMARK   43  A    between atoms: _111  and  _114
REMARK   44  A    between atoms: _114  and  _115
REMARK   45  A    between atoms: _121  and  _123
REMARK   46  A    between atoms: _134  and  _137
REMARK   47  A    between atoms: _137  and  _138
REMARK   48  A    between atoms: _146  and  _147
REMARK   49  A    between atoms: _155  and  _157
REMARK   50  A    between atoms: _157  and  _158
REMARK   51  A    between atoms: _157  and  _160
REMARK   52  A    between atoms: _160  and  _161
REMARK   53  A    between atoms: _161  and  _162
REMARK   54  A    between atoms: _165  and  _167
REMARK   55  A    between atoms: _167  and  _168
REMARK   56  A    between atoms: _167  and  _170
REMARK   57  A    between atoms: _170  and  _171
REMARK   58  A    between atoms: _176  and  _178
REMARK   59  A    between atoms: _178  and  _179
REMARK   60  A    between atoms: _178  and  _181
REMARK   61  A    between atoms: _181  and  _182
REMARK   62  A    between atoms: _182  and  _183
REMARK   63  A    between atoms: _186  and  _188
REMARK   64  A    between atoms: _188  and  _189
REMARK   65  A    between atoms: _188  and  _191
REMARK   66  A    between atoms: _191  and  _192
REMARK   67  A    between atoms: _195  and  _197
REMARK   68  A    between atoms: _197  and  _198
REMARK   69  A    between atoms: _197  and  _200
REMARK   70  A    between atoms: _200  and  _201
REMARK   71  A    between atoms: _202  and  ZN_417
REMARK   72  A    between atoms: _206  and  _208
REMARK   73  A    between atoms: _208  and  _209
REMARK   74  A    between atoms: _208  and  _211
REMARK   75  A    between atoms: _211  and  _212
REMARK   76  A    between atoms: _215  and  _217
REMARK   77  A    between atoms: _217  and  _218
REMARK   78  A    between atoms: _217  and  _220
REMARK   79  A    between atoms: _223  and  _225
REMARK   80  A    between atoms: _225  and  _226
REMARK   81  A    between atoms: _225  and  _228
REMARK   82  A    between atoms: _228  and  _229
REMARK   83  A    between atoms: _234  and  _236
REMARK   84  A    between atoms: _236  and  _237
REMARK   85  A    between atoms: _236  and  _239
REMARK   86  A    between atoms: _239  and  _240
REMARK   87  A    between atoms: _246  and  _248
REMARK   88  A    between atoms: _248  and  _249
REMARK   89  A    between atoms: _248  and  _251
REMARK   90  A    between atoms: _254  and  _256
REMARK   91  A    between atoms: _256  and  _257
REMARK   92  A    between atoms: _256  and  _259
REMARK   93  A    between atoms: _259  and  _260
REMARK   94  A    between atoms: _263  and  _265
REMARK   95  A    between atoms: _265  and  _266
REMARK   96  A    between atoms: _269  and  _271
REMARK   97  A    between atoms: _271  and  _272
REMARK   98  A    between atoms: _271  and  _274
REMARK   99  A    between atoms: _277  and  _279
REMARK  100  A    between atoms: _279  and  _280
REMARK  101  A    between atoms: _279  and  _282
REMARK  102  A    between atoms: _282  and  _283
REMARK  103  A    between atoms: _286  and  _288
REMARK  104  A    between atoms: _288  and  _289
REMARK  105  A    between atoms: _291  and  _293
REMARK  106  A    between atoms: _293  and  _294
REMARK  107  A    between atoms: _293  and  _296
REMARK  108  A    between atoms: _296  and  _297
REMARK  109  A    between atoms: _299  and  _301
REMARK  110  A    between atoms: _301  and  _302
REMARK  111  A    between atoms: _301  and  _304
REMARK  112  A    between atoms: _304  and  _305
REMARK  113  A    between atoms: _308  and  _310
REMARK  114  A    between atoms: _310  and  _311
REMARK  115  A    between atoms: _310  and  _313
REMARK  116  A    between atoms: _313  and  _314
REMARK  117  A    between atoms: _317  and  _319
REMARK  118  A    between atoms: _319  and  _320
REMARK  119  A    between atoms: _319  and  _322
REMARK  120  A    between atoms: _322  and  _323
REMARK  121  A    between atoms: _327  and  _328
REMARK  122  A    between atoms: _334  and  _335
REMARK  123  A    between atoms: _340  and  _342
REMARK  124  A    between atoms: _342  and  _343
REMARK  125  A    between atoms: _342  and  _345
REMARK  126  A    between atoms: _345  and  _346
REMARK  127  A    between atoms: _349  and  _351
REMARK  128  A    between atoms: _351  and  _352
REMARK  129  A    between atoms: _351  and  _354
REMARK  130  A    between atoms: _354  and  _355
REMARK  131  A    between atoms: _358  and  _360
REMARK  132  A    between atoms: _360  and  _361
REMARK  133  A    between atoms: _360  and  _363
REMARK  134  A    between atoms: _365  and  _367
REMARK  135  A    between atoms: _367  and  _368
REMARK  136  A    between atoms: _367  and  _370
REMARK  137  A    between atoms: _373  and  _375
REMARK  138  A    between atoms: _375  and  _376
REMARK  139  A    between atoms: _375  and  _378
REMARK  140  A    between atoms: _378  and  _379
REMARK  141  A    between atoms: _389  and  _391
REMARK  142  A    between atoms: _391  and  _392
REMARK  143  A    between atoms: _391  and  _394
REMARK  144  A    between atoms: _394  and  _395
REMARK  145  A    between atoms: _400  and  _402
REMARK  146  A    between atoms: _402  and  _403
REMARK  147  A    between atoms: _402  and  _405
REMARK  148  A    between atoms: _405  and  _406
REMARK  149  A    between atoms: _406  and  _407
REMARK  150  A    between atoms: _407  and  _408
REMARK                            x       y       z     vdW  Elec       q    Type
REMARK                         _______ _______ _______ _____ _____    ______ ____
ROOT
ATOM      1  O   HOH     1      -2.800  -3.585  11.602  0.00  0.00    +0.000 OA
ENDROOT
TORSDOF 0
REMARK  Name = ../refined-set-2016/3dcc/3dcc_pocket.pdb
REMARK  150 active torsions:
REMARK  status: ('A' for Active; 'I' for Inactive)
REMARK    1  A    between atoms: _1  and  _3
REMARK    2  A    between atoms: _3  and  _4
REMARK    3  A    between atoms: _3  and  _6
REMARK    4  A    between atoms: _6  and  _7
REMARK    5  A    between atoms: _17  and  _19
REMARK    6  A    between atoms: _19  and  _20
REMARK    7  A    between atoms: _19  and  _22
REMARK    8  A    between atoms: _22  and  _23
REMARK    9  A    between atoms: _28  and  _29
REMARK   10  A    between atoms: _31  and  _33
REMARK   11  A    between atoms: _33  and  _34
REMARK   12  A    between atoms: _33  and  _36
REMARK   13  A    between atoms: _36  and  _37
REMARK   14  A    between atoms: _40  and  _41
REMARK   15  A    between atoms: _46  and  _48
REMARK   16  A    between atoms: _48  and  _49
REMARK   17  A    between atoms: _48  and  _51
REMARK   18  A    between atoms: _51  and  _52
REMARK   19  A    between atoms: _57  and  _59
REMARK   20  A    between atoms: _59  and  _60
REMARK   21  A    between atoms: _59  and  _62
REMARK   22  A    between atoms: _62  and  _63
REMARK   23  A    between atoms: _68  and  _70
REMARK   24  A    between atoms: _70  and  _71
REMARK   25  A    between atoms: _70  and  _73
REMARK   26  A    between atoms: _73  and  _74
REMARK   27  A    between atoms: _76  and  _78
REMARK   28  A    between atoms: _78  and  _79
REMARK   29  A    between atoms: _78  and  _81
REMARK   30  A    between atoms: _81  and  _82
REMARK   31  A    between atoms: _82  and  _83
REMARK   32  A    between atoms: _88  and  _90
REMARK   33  A    between atoms: _90  and  _91
REMARK   34  A    between atoms: _90  and  _93
REMARK   35  A    between atoms: _93  and  _94
REMARK   36  A    between atoms: _97  and  _99
REMARK   37  A    between atoms: _99  and  _100
REMARK   38  A    between atoms: _99  and  _102
REMARK   39  A    between atoms: _102  and  _103
REMARK   40  A    between atoms: _103  and  _104
REMARK   41  A    between atoms: _109  and  _111
REMARK   42  A    between atoms: _111  and  _112
REMARK   43  A    between atoms: _111  and  _114
REMARK   44  A    between atoms: _114  and  _115
REMARK   45  A    between atoms: _121  and  _123
REMARK   46  A    between atoms: _134  and  _137
REMARK   47  A    between atoms: _137  and  _138
REMARK   48  A    between atoms: _146  and  _147
REMARK   49  A    between atoms: _155  and  _157
REMARK   50  A    between atoms: _157  and  _158
REMARK   51  A    between atoms: _157  and  _160
REMARK   52  A    between atoms: _160  and  _161
REMARK   53  A    between atoms: _161  and  _162
REMARK   54  A    between atoms: _165  and  _167
REMARK   55  A    between atoms: _167  and  _168
REMARK   56  A    between atoms: _167  and  _170
REMARK   57  A    between atoms: _170  and  _171
REMARK   58  A    between atoms: _176  and  _178
REMARK   59  A    between atoms: _178  and  _179
REMARK   60  A    between atoms: _178  and  _181
REMARK   61  A    between atoms: _181  and  _182
REMARK   62  A    between atoms: _182  and  _183
REMARK   63  A    between atoms: _186  and  _188
REMARK   64  A    between atoms: _188  and  _189
REMARK   65  A    between atoms: _188  and  _191
REMARK   66  A    between atoms: _191  and  _192
REMARK   67  A    between atoms: _195  and  _197
REMARK   68  A    between atoms: _197  and  _198
REMARK   69  A    between atoms: _197  and  _200
REMARK   70  A    between atoms: _200  and  _201
REMARK   71  A    between atoms: _202  and  ZN_417
REMARK   72  A    between atoms: _206  and  _208
REMARK   73  A    between atoms: _208  and  _209
REMARK   74  A    between atoms: _208  and  _211
REMARK   75  A    between atoms: _211  and  _212
REMARK   76  A    between atoms: _215  and  _217
REMARK   77  A    between atoms: _217  and  _218
REMARK   78  A    between atoms: _217  and  _220
REMARK   79  A    between atoms: _223  and  _225
REMARK   80  A    between atoms: _225  and  _226
REMARK   81  A    between atoms: _225  and  _228
REMARK   82  A    between atoms: _228  and  _229
REMARK   83  A    between atoms: _234  and  _236
REMARK   84  A    between atoms: _236  and  _237
REMARK   85  A    between atoms: _236  and  _239
REMARK   86  A    between atoms: _239  and  _240
REMARK   87  A    between atoms: _246  and  _248
REMARK   88  A    between atoms: _248  and  _249
REMARK   89  A    between atoms: _248  and  _251
REMARK   90  A    between atoms: _254  and  _256
REMARK   91  A    between atoms: _256  and  _257
REMARK   92  A    between atoms: _256  and  _259
REMARK   93  A    between atoms: _259  and  _260
REMARK   94  A    between atoms: _263  and  _265
REMARK   95  A    between atoms: _265  and  _266
REMARK   96  A    between atoms: _269  and  _271
REMARK   97  A    between atoms: _271  and  _272
REMARK   98  A    between atoms: _271  and  _274
REMARK   99  A    between atoms: _277  and  _279
REMARK  100  A    between atoms: _279  and  _280
REMARK  101  A    between atoms: _279  and  _282
REMARK  102  A    between atoms: _282  and  _283
REMARK  103  A    between atoms: _286  and  _288
REMARK  104  A    between atoms: _288  and  _289
REMARK  105  A    between atoms: _291  and  _293
REMARK  106  A    between atoms: _293  and  _294
REMARK  107  A    between atoms: _293  and  _296
REMARK  108  A    between atoms: _296  and  _297
REMARK  109  A    between atoms: _299  and  _301
REMARK  110  A    between atoms: _301  and  _302
REMARK  111  A    between atoms: _301  and  _304
REMARK  112  A    between atoms: _304  and  _305
REMARK  113  A    between atoms: _308  and  _310
REMARK  114  A    between atoms: _310  and  _311
REMARK  115  A    between atoms: _310  and  _313
REMARK  116  A    between atoms: _313  and  _314
REMARK  117  A    between atoms: _317  and  _319
REMARK  118  A    between atoms: _319  and  _320
REMARK  119  A    between atoms: _319  and  _322
REMARK  120  A    between atoms: _322  and  _323
REMARK  121  A    between atoms: _327  and  _328
REMARK  122  A    between atoms: _334  and  _335
REMARK  123  A    between atoms: _340  and  _342
REMARK  124  A    between atoms: _342  and  _343
REMARK  125  A    between atoms: _342  and  _345
REMARK  126  A    between atoms: _345  and  _346
REMARK  127  A    between atoms: _349  and  _351
REMARK  128  A    between atoms: _351  and  _352
REMARK  129  A    between atoms: _351  and  _354
REMARK  130  A    between atoms: _354  and  _355
REMARK  131  A    between atoms: _358  and  _360
REMARK  132  A    between atoms: _360  and  _361
REMARK  133  A    between atoms: _360  and  _363
REMARK  134  A    between atoms: _365  and  _367
REMARK  135  A    between atoms: _367  and  _368
REMARK  136  A    between atoms: _367  and  _370
REMARK  137  A    between atoms: _373  and  _375
REMARK  138  A    between atoms: _375  and  _376
REMARK  139  A    between atoms: _375  and  _378
REMARK  140  A    between atoms: _378  and  _379
REMARK  141  A    between atoms: _389  and  _391
REMARK  142  A    between atoms: _391  and  _392
REMARK  143  A    between atoms: _391  and  _394
REMARK  144  A    between atoms: _394  and  _395
REMARK  145  A    between atoms: _400  and  _402
REMARK  146  A    between atoms: _402  and  _403
REMARK  147  A    between atoms: _402  and  _405
REMARK  148  A    between atoms: _405  and  _406
REMARK  149  A    between atoms: _406  and  _407
REMARK  150  A    between atoms: _407  and  _408
REMARK                            x       y       z     vdW  Elec       q    Type
REMARK                         _______ _______ _______ _____ _____    ______ ____
ROOT
ATOM      1  O   HOH     1       0.236   3.220  11.690  0.00  0.00    +0.000 OA
ENDROOT
TORSDOF 0
REMARK  Name = ../refined-set-2016/3dcc/3dcc_pocket.pdb
REMARK  150 active torsions:
REMARK  status: ('A' for Active; 'I' for Inactive)
REMARK    1  A    between atoms: _1  and  _3
REMARK    2  A    between atoms: _3  and  _4
REMARK    3  A    between atoms: _3  and  _6
REMARK    4  A    between atoms: _6  and  _7
REMARK    5  A    between atoms: _17  and  _19
REMARK    6  A    between atoms: _19  and  _20
REMARK    7  A    between atoms: _19  and  _22
REMARK    8  A    between atoms: _22  and  _23
REMARK    9  A    between atoms: _28  and  _29
REMARK   10  A    between atoms: _31  and  _33
REMARK   11  A    between atoms: _33  and  _34
REMARK   12  A    between atoms: _33  and  _36
REMARK   13  A    between atoms: _36  and  _37
REMARK   14  A    between atoms: _40  and  _41
REMARK   15  A    between atoms: _46  and  _48
REMARK   16  A    between atoms: _48  and  _49
REMARK   17  A    between atoms: _48  and  _51
REMARK   18  A    between atoms: _51  and  _52
REMARK   19  A    between atoms: _57  and  _59
REMARK   20  A    between atoms: _59  and  _60
REMARK   21  A    between atoms: _59  and  _62
REMARK   22  A    between atoms: _62  and  _63
REMARK   23  A    between atoms: _68  and  _70
REMARK   24  A    between atoms: _70  and  _71
REMARK   25  A    between atoms: _70  and  _73
REMARK   26  A    between atoms: _73  and  _74
REMARK   27  A    between atoms: _76  and  _78
REMARK   28  A    between atoms: _78  and  _79
REMARK   29  A    between atoms: _78  and  _81
REMARK   30  A    between atoms: _81  and  _82
REMARK   31  A    between atoms: _82  and  _83
REMARK   32  A    between atoms: _88  and  _90
REMARK   33  A    between atoms: _90  and  _91
REMARK   34  A    between atoms: _90  and  _93
REMARK   35  A    between atoms: _93  and  _94
REMARK   36  A    between atoms: _97  and  _99
REMARK   37  A    between atoms: _99  and  _100
REMARK   38  A    between atoms: _99  and  _102
REMARK   39  A    between atoms: _102  and  _103
REMARK   40  A    between atoms: _103  and  _104
REMARK   41  A    between atoms: _109  and  _111
REMARK   42  A    between atoms: _111  and  _112
REMARK   43  A    between atoms: _111  and  _114
REMARK   44  A    between atoms: _114  and  _115
REMARK   45  A    between atoms: _121  and  _123
REMARK   46  A    between atoms: _134  and  _137
REMARK   47  A    between atoms: _137  and  _138
REMARK   48  A    between atoms: _146  and  _147
REMARK   49  A    between atoms: _155  and  _157
REMARK   50  A    between atoms: _157  and  _158
REMARK   51  A    between atoms: _157  and  _160
REMARK   52  A    between atoms: _160  and  _161
REMARK   53  A    between atoms: _161  and  _162
REMARK   54  A    between atoms: _165  and  _167
REMARK   55  A    between atoms: _167  and  _168
REMARK   56  A    between atoms: _167  and  _170
REMARK   57  A    between atoms: _170  and  _171
REMARK   58  A    between atoms: _176  and  _178
REMARK   59  A    between atoms: _178  and  _179
REMARK   60  A    between atoms: _178  and  _181
REMARK   61  A    between atoms: _181  and  _182
REMARK   62  A    between atoms: _182  and  _183
REMARK   63  A    between atoms: _186  and  _188
REMARK   64  A    between atoms: _188  and  _189
REMARK   65  A    between atoms: _188  and  _191
REMARK   66  A    between atoms: _191  and  _192
REMARK   67  A    between atoms: _195  and  _197
REMARK   68  A    between atoms: _197  and  _198
REMARK   69  A    between atoms: _197  and  _200
REMARK   70  A    between atoms: _200  and  _201
REMARK   71  A    between atoms: _202  and  ZN_417
REMARK   72  A    between atoms: _206  and  _208
REMARK   73  A    between atoms: _208  and  _209
REMARK   74  A    between atoms: _208  and  _211
REMARK   75  A    between atoms: _211  and  _212
REMARK   76  A    between atoms: _215  and  _217
REMARK   77  A    between atoms: _217  and  _218
REMARK   78  A    between atoms: _217  and  _220
REMARK   79  A    between atoms: _223  and  _225
REMARK   80  A    between atoms: _225  and  _226
REMARK   81  A    between atoms: _225  and  _228
REMARK   82  A    between atoms: _228  and  _229
REMARK   83  A    between atoms: _234  and  _236
REMARK   84  A    between atoms: _236  and  _237
REMARK   85  A    between atoms: _236  and  _239
REMARK   86  A    between atoms: _239  and  _240
REMARK   87  A    between atoms: _246  and  _248
REMARK   88  A    between atoms: _248  and  _249
REMARK   89  A    between atoms: _248  and  _251
REMARK   90  A    between atoms: _254  and  _256
REMARK   91  A    between atoms: _256  and  _257
REMARK   92  A    between atoms: _256  and  _259
REMARK   93  A    between atoms: _259  and  _260
REMARK   94  A    between atoms: _263  and  _265
REMARK   95  A    between atoms: _265  and  _266
REMARK   96  A    between atoms: _269  and  _271
REMARK   97  A    between atoms: _271  and  _272
REMARK   98  A    between atoms: _271  and  _274
REMARK   99  A    between atoms: _277  and  _279
REMARK  100  A    between atoms: _279  and  _280
REMARK  101  A    between atoms: _279  and  _282
REMARK  102  A    between atoms: _282  and  _283
REMARK  103  A    between atoms: _286  and  _288
REMARK  104  A    between atoms: _288  and  _289
REMARK  105  A    between atoms: _291  and  _293
REMARK  106  A    between atoms: _293  and  _294
REMARK  107  A    between atoms: _293  and  _296
REMARK  108  A    between atoms: _296  and  _297
REMARK  109  A    between atoms: _299  and  _301
REMARK  110  A    between atoms: _301  and  _302
REMARK  111  A    between atoms: _301  and  _304
REMARK  112  A    between atoms: _304  and  _305
REMARK  113  A    between atoms: _308  and  _310
REMARK  114  A    between atoms: _310  and  _311
REMARK  115  A    between atoms: _310  and  _313
REMARK  116  A    between atoms: _313  and  _314
REMARK  117  A    between atoms: _317  and  _319
REMARK  118  A    between atoms: _319  and  _320
REMARK  119  A    between atoms: _319  and  _322
REMARK  120  A    between atoms: _322  and  _323
REMARK  121  A    between atoms: _327  and  _328
REMARK  122  A    between atoms: _334  and  _335
REMARK  123  A    between atoms: _340  and  _342
REMARK  124  A    between atoms: _342  and  _343
REMARK  125  A    between atoms: _342  and  _345
REMARK  126  A    between atoms: _345  and  _346
REMARK  127  A    between atoms: _349  and  _351
REMARK  128  A    between atoms: _351  and  _352
REMARK  129  A    between atoms: _351  and  _354
REMARK  130  A    between atoms: _354  and  _355
REMARK  131  A    between atoms: _358  and  _360
REMARK  132  A    between atoms: _360  and  _361
REMARK  133  A    between atoms: _360  and  _363
REMARK  134  A    between atoms: _365  and  _367
REMARK  135  A    between atoms: _367  and  _368
REMARK  136  A    between atoms: _367  and  _370
REMARK  137  A    between atoms: _373  and  _375
REMARK  138  A    between atoms: _375  and  _376
REMARK  139  A    between atoms: _375  and  _378
REMARK  140  A    between atoms: _378  and  _379
REMARK  141  A    between atoms: _389  and  _391
REMARK  142  A    between atoms: _391  and  _392
REMARK  143  A    between atoms: _391  and  _394
REMARK  144  A    between atoms: _394  and  _395
REMARK  145  A    between atoms: _400  and  _402
REMARK  146  A    between atoms: _402  and  _403
REMARK  147  A    between atoms: _402  and  _405
REMARK  148  A    between atoms: _405  and  _406
REMARK  149  A    between atoms: _406  and  _407
REMARK  150  A    between atoms: _407  and  _408
REMARK                            x       y       z     vdW  Elec       q    Type
REMARK                         _______ _______ _______ _____ _____    ______ ____
ROOT
ATOM      1  O   HOH     1      -3.753   4.904   6.637  0.00  0.00    +0.000 OA
ENDROOT
TORSDOF 0
REMARK  Name = ../refined-set-2016/3dcc/3dcc_pocket.pdb
REMARK  150 active torsions:
REMARK  status: ('A' for Active; 'I' for Inactive)
REMARK    1  A    between atoms: _1  and  _3
REMARK    2  A    between atoms: _3  and  _4
REMARK    3  A    between atoms: _3  and  _6
REMARK    4  A    between atoms: _6  and  _7
REMARK    5  A    between atoms: _17  and  _19
REMARK    6  A    between atoms: _19  and  _20
REMARK    7  A    between atoms: _19  and  _22
REMARK    8  A    between atoms: _22  and  _23
REMARK    9  A    between atoms: _28  and  _29
REMARK   10  A    between atoms: _31  and  _33
REMARK   11  A    between atoms: _33  and  _34
REMARK   12  A    between atoms: _33  and  _36
REMARK   13  A    between atoms: _36  and  _37
REMARK   14  A    between atoms: _40  and  _41
REMARK   15  A    between atoms: _46  and  _48
REMARK   16  A    between atoms: _48  and  _49
REMARK   17  A    between atoms: _48  and  _51
REMARK   18  A    between atoms: _51  and  _52
REMARK   19  A    between atoms: _57  and  _59
REMARK   20  A    between atoms: _59  and  _60
REMARK   21  A    between atoms: _59  and  _62
REMARK   22  A    between atoms: _62  and  _63
REMARK   23  A    between atoms: _68  and  _70
REMARK   24  A    between atoms: _70  and  _71
REMARK   25  A    between atoms: _70  and  _73
REMARK   26  A    between atoms: _73  and  _74
REMARK   27  A    between atoms: _76  and  _78
REMARK   28  A    between atoms: _78  and  _79
REMARK   29  A    between atoms: _78  and  _81
REMARK   30  A    between atoms: _81  and  _82
REMARK   31  A    between atoms: _82  and  _83
REMARK   32  A    between atoms: _88  and  _90
REMARK   33  A    between atoms: _90  and  _91
REMARK   34  A    between atoms: _90  and  _93
REMARK   35  A    between atoms: _93  and  _94
REMARK   36  A    between atoms: _97  and  _99
REMARK   37  A    between atoms: _99  and  _100
REMARK   38  A    between atoms: _99  and  _102
REMARK   39  A    between atoms: _102  and  _103
REMARK   40  A    between atoms: _103  and  _104
REMARK   41  A    between atoms: _109  and  _111
REMARK   42  A    between atoms: _111  and  _112
REMARK   43  A    between atoms: _111  and  _114
REMARK   44  A    between atoms: _114  and  _115
REMARK   45  A    between atoms: _121  and  _123
REMARK   46  A    between atoms: _134  and  _137
REMARK   47  A    between atoms: _137  and  _138
REMARK   48  A    between atoms: _146  and  _147
REMARK   49  A    between atoms: _155  and  _157
REMARK   50  A    between atoms: _157  and  _158
REMARK   51  A    between atoms: _157  and  _160
REMARK   52  A    between atoms: _160  and  _161
REMARK   53  A    between atoms: _161  and  _162
REMARK   54  A    between atoms: _165  and  _167
REMARK   55  A    between atoms: _167  and  _168
REMARK   56  A    between atoms: _167  and  _170
REMARK   57  A    between atoms: _170  and  _171
REMARK   58  A    between atoms: _176  and  _178
REMARK   59  A    between atoms: _178  and  _179
REMARK   60  A    between atoms: _178  and  _181
REMARK   61  A    between atoms: _181  and  _182
REMARK   62  A    between atoms: _182  and  _183
REMARK   63  A    between atoms: _186  and  _188
REMARK   64  A    between atoms: _188  and  _189
REMARK   65  A    between atoms: _188  and  _191
REMARK   66  A    between atoms: _191  and  _192
REMARK   67  A    between atoms: _195  and  _197
REMARK   68  A    between atoms: _197  and  _198
REMARK   69  A    between atoms: _197  and  _200
REMARK   70  A    between atoms: _200  and  _201
REMARK   71  A    between atoms: _202  and  ZN_417
REMARK   72  A    between atoms: _206  and  _208
REMARK   73  A    between atoms: _208  and  _209
REMARK   74  A    between atoms: _208  and  _211
REMARK   75  A    between atoms: _211  and  _212
REMARK   76  A    between atoms: _215  and  _217
REMARK   77  A    between atoms: _217  and  _218
REMARK   78  A    between atoms: _217  and  _220
REMARK   79  A    between atoms: _223  and  _225
REMARK   80  A    between atoms: _225  and  _226
REMARK   81  A    between atoms: _225  and  _228
REMARK   82  A    between atoms: _228  and  _229
REMARK   83  A    between atoms: _234  and  _236
REMARK   84  A    between atoms: _236  and  _237
REMARK   85  A    between atoms: _236  and  _239
REMARK   86  A    between atoms: _239  and  _240
REMARK   87  A    between atoms: _246  and  _248
REMARK   88  A    between atoms: _248  and  _249
REMARK   89  A    between atoms: _248  and  _251
REMARK   90  A    between atoms: _254  and  _256
REMARK   91  A    between atoms: _256  and  _257
REMARK   92  A    between atoms: _256  and  _259
REMARK   93  A    between atoms: _259  and  _260
REMARK   94  A    between atoms: _263  and  _265
REMARK   95  A    between atoms: _265  and  _266
REMARK   96  A    between atoms: _269  and  _271
REMARK   97  A    between atoms: _271  and  _272
REMARK   98  A    between atoms: _271  and  _274
REMARK   99  A    between atoms: _277  and  _279
REMARK  100  A    between atoms: _279  and  _280
REMARK  101  A    between atoms: _279  and  _282
REMARK  102  A    between atoms: _282  and  _283
REMARK  103  A    between atoms: _286  and  _288
REMARK  104  A    between atoms: _288  and  _289
REMARK  105  A    between atoms: _291  and  _293
REMARK  106  A    between atoms: _293  and  _294
REMARK  107  A    between atoms: _293  and  _296
REMARK  108  A    between atoms: _296  and  _297
REMARK  109  A    between atoms: _299  and  _301
REMARK  110  A    between atoms: _301  and  _302
REMARK  111  A    between atoms: _301  and  _304
REMARK  112  A    between atoms: _304  and  _305
REMARK  113  A    between atoms: _308  and  _310
REMARK  114  A    between atoms: _310  and  _311
REMARK  115  A    between atoms: _310  and  _313
REMARK  116  A    between atoms: _313  and  _314
REMARK  117  A    between atoms: _317  and  _319
REMARK  118  A    between atoms: _319  and  _320
REMARK  119  A    between atoms: _319  and  _322
REMARK  120  A    between atoms: _322  and  _323
REMARK  121  A    between atoms: _327  and  _328
REMARK  122  A    between atoms: _334  and  _335
REMARK  123  A    between atoms: _340  and  _342
REMARK  124  A    between atoms: _342  and  _343
REMARK  125  A    between atoms: _342  and  _345
REMARK  126  A    between atoms: _345  and  _346
REMARK  127  A    between atoms: _349  and  _351
REMARK  128  A    between atoms: _351  and  _352
REMARK  129  A    between atoms: _351  and  _354
REMARK  130  A    between atoms: _354  and  _355
REMARK  131  A    between atoms: _358  and  _360
REMARK  132  A    between atoms: _360  and  _361
REMARK  133  A    between atoms: _360  and  _363
REMARK  134  A    between atoms: _365  and  _367
REMARK  135  A    between atoms: _367  and  _368
REMARK  136  A    between atoms: _367  and  _370
REMARK  137  A    between atoms: _373  and  _375
REMARK  138  A    between atoms: _375  and  _376
REMARK  139  A    between atoms: _375  and  _378
REMARK  140  A    between atoms: _378  and  _379
REMARK  141  A    between atoms: _389  and  _391
REMARK  142  A    between atoms: _391  and  _392
REMARK  143  A    between atoms: _391  and  _394
REMARK  144  A    between atoms: _394  and  _395
REMARK  145  A    between atoms: _400  and  _402
REMARK  146  A    between atoms: _402  and  _403
REMARK  147  A    between atoms: _402  and  _405
REMARK  148  A    between atoms: _405  and  _406
REMARK  149  A    between atoms: _406  and  _407
REMARK  150  A    between atoms: _407  and  _408
REMARK                            x       y       z     vdW  Elec       q    Type
REMARK                         _______ _______ _______ _____ _____    ______ ____
ROOT
ATOM      1  O   HOH     1      -4.415   3.154  10.319  0.00  0.00    +0.000 OA
ENDROOT
TORSDOF 0
REMARK  Name = ../refined-set-2016/3dcc/3dcc_pocket.pdb
REMARK  150 active torsions:
REMARK  status: ('A' for Active; 'I' for Inactive)
REMARK    1  A    between atoms: _1  and  _3
REMARK    2  A    between atoms: _3  and  _4
REMARK    3  A    between atoms: _3  and  _6
REMARK    4  A    between atoms: _6  and  _7
REMARK    5  A    between atoms: _17  and  _19
REMARK    6  A    between atoms: _19  and  _20
REMARK    7  A    between atoms: _19  and  _22
REMARK    8  A    between atoms: _22  and  _23
REMARK    9  A    between atoms: _28  and  _29
REMARK   10  A    between atoms: _31  and  _33
REMARK   11  A    between atoms: _33  and  _34
REMARK   12  A    between atoms: _33  and  _36
REMARK   13  A    between atoms: _36  and  _37
REMARK   14  A    between atoms: _40  and  _41
REMARK   15  A    between atoms: _46  and  _48
REMARK   16  A    between atoms: _48  and  _49
REMARK   17  A    between atoms: _48  and  _51
REMARK   18  A    between atoms: _51  and  _52
REMARK   19  A    between atoms: _57  and  _59
REMARK   20  A    between atoms: _59  and  _60
REMARK   21  A    between atoms: _59  and  _62
REMARK   22  A    between atoms: _62  and  _63
REMARK   23  A    between atoms: _68  and  _70
REMARK   24  A    between atoms: _70  and  _71
REMARK   25  A    between atoms: _70  and  _73
REMARK   26  A    between atoms: _73  and  _74
REMARK   27  A    between atoms: _76  and  _78
REMARK   28  A    between atoms: _78  and  _79
REMARK   29  A    between atoms: _78  and  _81
REMARK   30  A    between atoms: _81  and  _82
REMARK   31  A    between atoms: _82  and  _83
REMARK   32  A    between atoms: _88  and  _90
REMARK   33  A    between atoms: _90  and  _91
REMARK   34  A    between atoms: _90  and  _93
REMARK   35  A    between atoms: _93  and  _94
REMARK   36  A    between atoms: _97  and  _99
REMARK   37  A    between atoms: _99  and  _100
REMARK   38  A    between atoms: _99  and  _102
REMARK   39  A    between atoms: _102  and  _103
REMARK   40  A    between atoms: _103  and  _104
REMARK   41  A    between atoms: _109  and  _111
REMARK   42  A    between atoms: _111  and  _112
REMARK   43  A    between atoms: _111  and  _114
REMARK   44  A    between atoms: _114  and  _115
REMARK   45  A    between atoms: _121  and  _123
REMARK   46  A    between atoms: _134  and  _137
REMARK   47  A    between atoms: _137  and  _138
REMARK   48  A    between atoms: _146  and  _147
REMARK   49  A    between atoms: _155  and  _157
REMARK   50  A    between atoms: _157  and  _158
REMARK   51  A    between atoms: _157  and  _160
REMARK   52  A    between atoms: _160  and  _161
REMARK   53  A    between atoms: _161  and  _162
REMARK   54  A    between atoms: _165  and  _167
REMARK   55  A    between atoms: _167  and  _168
REMARK   56  A    between atoms: _167  and  _170
REMARK   57  A    between atoms: _170  and  _171
REMARK   58  A    between atoms: _176  and  _178
REMARK   59  A    between atoms: _178  and  _179
REMARK   60  A    between atoms: _178  and  _181
REMARK   61  A    between atoms: _181  and  _182
REMARK   62  A    between atoms: _182  and  _183
REMARK   63  A    between atoms: _186  and  _188
REMARK   64  A    between atoms: _188  and  _189
REMARK   65  A    between atoms: _188  and  _191
REMARK   66  A    between atoms: _191  and  _192
REMARK   67  A    between atoms: _195  and  _197
REMARK   68  A    between atoms: _197  and  _198
REMARK   69  A    between atoms: _197  and  _200
REMARK   70  A    between atoms: _200  and  _201
REMARK   71  A    between atoms: _202  and  ZN_417
REMARK   72  A    between atoms: _206  and  _208
REMARK   73  A    between atoms: _208  and  _209
REMARK   74  A    between atoms: _208  and  _211
REMARK   75  A    between atoms: _211  and  _212
REMARK   76  A    between atoms: _215  and  _217
REMARK   77  A    between atoms: _217  and  _218
REMARK   78  A    between atoms: _217  and  _220
REMARK   79  A    between atoms: _223  and  _225
REMARK   80  A    between atoms: _225  and  _226
REMARK   81  A    between atoms: _225  and  _228
REMARK   82  A    between atoms: _228  and  _229
REMARK   83  A    between atoms: _234  and  _236
REMARK   84  A    between atoms: _236  and  _237
REMARK   85  A    between atoms: _236  and  _239
REMARK   86  A    between atoms: _239  and  _240
REMARK   87  A    between atoms: _246  and  _248
REMARK   88  A    between atoms: _248  and  _249
REMARK   89  A    between atoms: _248  and  _251
REMARK   90  A    between atoms: _254  and  _256
REMARK   91  A    between atoms: _256  and  _257
REMARK   92  A    between atoms: _256  and  _259
REMARK   93  A    between atoms: _259  and  _260
REMARK   94  A    between atoms: _263  and  _265
REMARK   95  A    between atoms: _265  and  _266
REMARK   96  A    between atoms: _269  and  _271
REMARK   97  A    between atoms: _271  and  _272
REMARK   98  A    between atoms: _271  and  _274
REMARK   99  A    between atoms: _277  and  _279
REMARK  100  A    between atoms: _279  and  _280
REMARK  101  A    between atoms: _279  and  _282
REMARK  102  A    between atoms: _282  and  _283
REMARK  103  A    between atoms: _286  and  _288
REMARK  104  A    between atoms: _288  and  _289
REMARK  105  A    between atoms: _291  and  _293
REMARK  106  A    between atoms: _293  and  _294
REMARK  107  A    between atoms: _293  and  _296
REMARK  108  A    between atoms: _296  and  _297
REMARK  109  A    between atoms: _299  and  _301
REMARK  110  A    between atoms: _301  and  _302
REMARK  111  A    between atoms: _301  and  _304
REMARK  112  A    between atoms: _304  and  _305
REMARK  113  A    between atoms: _308  and  _310
REMARK  114  A    between atoms: _310  and  _311
REMARK  115  A    between atoms: _310  and  _313
REMARK  116  A    between atoms: _313  and  _314
REMARK  117  A    between atoms: _317  and  _319
REMARK  118  A    between atoms: _319  and  _320
REMARK  119  A    between atoms: _319  and  _322
REMARK  120  A    between atoms: _322  and  _323
REMARK  121  A    between atoms: _327  and  _328
REMARK  122  A    between atoms: _334  and  _335
REMARK  123  A    between atoms: _340  and  _342
REMARK  124  A    between atoms: _342  and  _343
REMARK  125  A    between atoms: _342  and  _345
REMARK  126  A    between atoms: _345  and  _346
REMARK  127  A    between atoms: _349  and  _351
REMARK  128  A    between atoms: _351  and  _352
REMARK  129  A    between atoms: _351  and  _354
REMARK  130  A    between atoms: _354  and  _355
REMARK  131  A    between atoms: _358  and  _360
REMARK  132  A    between atoms: _360  and  _361
REMARK  133  A    between atoms: _360  and  _363
REMARK  134  A    between atoms: _365  and  _367
REMARK  135  A    between atoms: _367  and  _368
REMARK  136  A    between atoms: _367  and  _370
REMARK  137  A    between atoms: _373  and  _375
REMARK  138  A    between atoms: _375  and  _376
REMARK  139  A    between atoms: _375  and  _378
REMARK  140  A    between atoms: _378  and  _379
REMARK  141  A    between atoms: _389  and  _391
REMARK  142  A    between atoms: _391  and  _392
REMARK  143  A    between atoms: _391  and  _394
REMARK  144  A    between atoms: _394  and  _395
REMARK  145  A    between atoms: _400  and  _402
REMARK  146  A    between atoms: _402  and  _403
REMARK  147  A    between atoms: _402  and  _405
REMARK  148  A    between atoms: _405  and  _406
REMARK  149  A    between atoms: _406  and  _407
REMARK  150  A    between atoms: _407  and  _408
REMARK                            x       y       z     vdW  Elec       q    Type
REMARK                         _______ _______ _______ _____ _____    ______ ____
ROOT
ATOM      1  O   HOH     1      -3.894   0.197  13.237  0.00  0.00    +0.000 OA
ENDROOT
TORSDOF 0
