REMARK  Name = ../refined-set-2016/3t1l/3t1l_pocket.pdb
REMARK  112 active torsions:
REMARK  status: ('A' for Active; 'I' for Inactive)
REMARK    1  A    between atoms: _1  and  _3
REMARK    2  A    between atoms: _3  and  _4
REMARK    3  A    between atoms: _3  and  _6
REMARK    4  A    between atoms: _6  and  _7
REMARK    5  A    between atoms: _12  and  _14
REMARK    6  A    between atoms: _14  and  _15
REMARK    7  A    between atoms: _14  and  _17
REMARK    8  A    between atoms: _17  and  _18
REMARK    9  A    between atoms: _18  and  _19
REMARK   10  A    between atoms: _19  and  _20
REMARK   11  A    between atoms: _29  and  _31
REMARK   12  A    between atoms: _31  and  _32
REMARK   13  A    between atoms: _31  and  _34
REMARK   14  A    between atoms: _34  and  _35
REMARK   15  A    between atoms: _38  and  _40
REMARK   16  A    between atoms: _40  and  _41
REMARK   17  A    between atoms: _44  and  _46
REMARK   18  A    between atoms: _46  and  _47
REMARK   19  A    between atoms: _46  and  _49
REMARK   20  A    between atoms: _49  and  _50
REMARK   21  A    between atoms: _53  and  _55
REMARK   22  A    between atoms: _55  and  _56
REMARK   23  A    between atoms: _55  and  _58
REMARK   24  A    between atoms: _58  and  _59
REMARK   25  A    between atoms: _59  and  _60
REMARK   26  A    between atoms: _65  and  _67
REMARK   27  A    between atoms: _67  and  _68
REMARK   28  A    between atoms: _67  and  _70
REMARK   29  A    between atoms: _73  and  _75
REMARK   30  A    between atoms: _75  and  _76
REMARK   31  A    between atoms: _75  and  _78
REMARK   32  A    between atoms: _78  and  _79
REMARK   33  A    between atoms: _84  and  _86
REMARK   34  A    between atoms: _86  and  _87
REMARK   35  A    between atoms: _86  and  _89
REMARK   36  A    between atoms: _89  and  _90
REMARK   37  A    between atoms: _96  and  _98
REMARK   38  A    between atoms: _98  and  _99
REMARK   39  A    between atoms: _98  and  _101
REMARK   40  A    between atoms: _101  and  _102
REMARK   41  A    between atoms: _107  and  _109
REMARK   42  A    between atoms: _109  and  _110
REMARK   43  A    between atoms: _109  and  _112
REMARK   44  A    between atoms: _112  and  _113
REMARK   45  A    between atoms: _113  and  _114
REMARK   46  A    between atoms: _114  and  _115
REMARK   47  A    between atoms: _124  and  _126
REMARK   48  A    between atoms: _126  and  _127
REMARK   49  A    between atoms: _126  and  _129
REMARK   50  A    between atoms: _129  and  _130
REMARK   51  A    between atoms: _130  and  _131
REMARK   52  A    between atoms: _134  and  _136
REMARK   53  A    between atoms: _136  and  _137
REMARK   54  A    between atoms: _136  and  _139
REMARK   55  A    between atoms: _142  and  _144
REMARK   56  A    between atoms: _144  and  _145
REMARK   57  A    between atoms: _144  and  _147
REMARK   58  A    between atoms: _149  and  _151
REMARK   59  A    between atoms: _151  and  _152
REMARK   60  A    between atoms: _151  and  _154
REMARK   61  A    between atoms: _154  and  _155
REMARK   62  A    between atoms: _160  and  _162
REMARK   63  A    between atoms: _162  and  _163
REMARK   64  A    between atoms: _162  and  _165
REMARK   65  A    between atoms: _165  and  _166
REMARK   66  A    between atoms: _169  and  _171
REMARK   67  A    between atoms: _171  and  _172
REMARK   68  A    between atoms: _171  and  _174
REMARK   69  A    between atoms: _174  and  _175
REMARK   70  A    between atoms: _175  and  _176
REMARK   71  A    between atoms: _176  and  _177
REMARK   72  A    between atoms: _177  and  _178
REMARK   73  A    between atoms: _182  and  _184
REMARK   74  A    between atoms: _184  and  _185
REMARK   75  A    between atoms: _184  and  _187
REMARK   76  A    between atoms: _187  and  _188
REMARK   77  A    between atoms: _198  and  _200
REMARK   78  A    between atoms: _200  and  _201
REMARK   79  A    between atoms: _203  and  _205
REMARK   80  A    between atoms: _205  and  _206
REMARK   81  A    between atoms: _205  and  _208
REMARK   82  A    between atoms: _208  and  _209
REMARK   83  A    between atoms: _209  and  _210
REMARK   84  A    between atoms: _210  and  _211
REMARK   85  A    between atoms: _220  and  _222
REMARK   86  A    between atoms: _222  and  _223
REMARK   87  A    between atoms: _222  and  _225
REMARK   88  A    between atoms: _225  and  _226
REMARK   89  A    between atoms: _226  and  _227
REMARK   90  A    between atoms: _230  and  _232
REMARK   91  A    between atoms: _232  and  _233
REMARK   92  A    between atoms: _232  and  _235
REMARK   93  A    between atoms: _235  and  _236
REMARK   94  A    between atoms: _236  and  _237
REMARK   95  A    between atoms: _240  and  _242
REMARK   96  A    between atoms: _242  and  _243
REMARK   97  A    between atoms: _242  and  _245
REMARK   98  A    between atoms: _245  and  _246
REMARK   99  A    between atoms: _246  and  _247
REMARK  100  A    between atoms: _247  and  _248
REMARK  101  A    between atoms: _257  and  _259
REMARK  102  A    between atoms: _259  and  _260
REMARK  103  A    between atoms: _259  and  _262
REMARK  104  A    between atoms: _262  and  _263
REMARK  105  A    between atoms: _263  and  _264
REMARK  106  A    between atoms: _264  and  _265
REMARK  107  A    between atoms: _274  and  _276
REMARK  108  A    between atoms: _276  and  _277
REMARK  109  A    between atoms: _276  and  _279
REMARK  110  A    between atoms: _279  and  _280
REMARK  111  A    between atoms: _282  and  _284
REMARK  112  A    between atoms: _284  and  _285
REMARK                            x       y       z     vdW  Elec       q    Type
REMARK                         _______ _______ _______ _____ _____    ______ ____
ROOT
ATOM      1  CA  ARG A   2      12.662 -10.954   7.168  0.00  0.00    +0.149 C 
ENDROOT
BRANCH   1   2
ATOM      2  C   ARG A   2      11.564  -9.922   7.339  0.00  0.00    +0.241 C 
ATOM      3  N   ILE A   3      11.990  -8.671   7.467  0.00  0.00    -0.297 N 
ATOM      4  H   ILE A   3      13.001  -8.520   7.657  0.00  0.00    +0.150 HD
ATOM      5  O   ARG A   2      10.378 -10.255   7.353  0.00  0.00    -0.273 OA
BRANCH   3   6
ATOM      6  CA  ILE A   3      11.130  -7.486   7.358  0.00  0.00    +0.149 C 
BRANCH   6   7
ATOM      7  C   ILE A   3      11.815  -6.565   6.358  0.00  0.00    +0.241 C 
ATOM      8  O   ILE A   3      13.042  -6.550   6.289  0.00  0.00    -0.273 OA
ATOM      9  N   ALA A   4      11.051  -5.796   5.582  0.00  0.00    -0.298 N 
ATOM     10  H   ALA A   4      10.017  -5.909   5.596  0.00  0.00    +0.150 HD
BRANCH   9  11
ATOM     11  CA  ALA A   4      11.662  -4.798   4.715  0.00  0.00    +0.137 C 
ATOM     12  CB  ALA A   4      11.914  -5.368   3.332  0.00  0.00    +0.030 C 
BRANCH  11  13
ATOM     13  C   ALA A   4      10.816  -3.547   4.614  0.00  0.00    +0.227 C 
ATOM     14  O   ALA A   4       9.600  -3.620   4.395  0.00  0.00    -0.286 OA
ENDBRANCH  11  13
ENDBRANCH   9  11
ENDBRANCH   6   7
BRANCH   6  15
ATOM     15  CB  ILE A   3      11.003  -6.753   8.696  0.00  0.00    +0.027 C 
ATOM     16  CG2 ILE A   3      10.172  -5.456   8.549  0.00  0.00    +0.002 C 
BRANCH  15  17
ATOM     17  CG1 ILE A   3      10.383  -7.665   9.762  0.00  0.00    +0.002 C 
ATOM     18  CD1 ILE A   3      10.483  -7.099  11.159  0.00  0.00    +0.000 C 
ENDBRANCH  15  17
ENDBRANCH   6  15
ENDBRANCH   3   6
ENDBRANCH   1   2
BRANCH   1  21
ATOM     19  C   ASN A   1      13.168 -13.182   7.983  0.00  0.00    +0.239 C 
ATOM     20  O   ASN A   1      14.356 -12.907   8.083  0.00  0.00    -0.274 OA
ATOM     21  N   ARG A   2      12.261 -12.292   7.591  0.00  0.00    -0.297 N 
ATOM     22  H   ARG A   2      11.254 -12.552   7.586  0.00  0.00    +0.150 HD
BRANCH  19  23
ATOM     23  CA  ASN A   1      12.663 -14.593   8.290  0.00  0.00    +0.154 C 
BRANCH  23  24
ATOM     24  N   ASN A   1      11.387 -14.580   9.001  0.00  0.00    -0.238 NA
ATOM     25  H   ASN A   1      10.536 -14.285   8.481  0.00  0.00    +0.142 HD
ENDBRANCH  23  24
BRANCH  23  26
ATOM     26  CB  ASN A   1      12.513 -15.376   6.982  0.00  0.00    +0.111 C 
BRANCH  26  27
ATOM     27  CG  ASN A   1      13.795 -15.423   6.175  0.00  0.00    +0.221 C 
ATOM     28  ND2 ASN A   1      14.814 -16.076   6.718  0.00  0.00    -0.329 N 
ATOM     29 HD21 ASN A   1      14.709 -16.518   7.653  0.00  0.00    +0.145 HD
ATOM     30 HD22 ASN A   1      15.718 -16.146   6.208  0.00  0.00    +0.145 HD
ATOM     31  OD1 ASN A   1      13.865 -14.881   5.071  0.00  0.00    -0.275 OA
ENDBRANCH  26  27
ENDBRANCH  23  26
ENDBRANCH  19  23
ENDBRANCH   1  21
BRANCH   1  32
ATOM     32  CB  ARG A   2      13.106 -10.980   5.706  0.00  0.00    +0.033 C 
BRANCH  32  33
ATOM     33  CG  ARG A   2      11.953 -11.210   4.725  0.00  0.00    +0.045 C 
BRANCH  33  34
ATOM     34  CD  ARG A   2      12.427 -11.416   3.299  0.00  0.00    +0.174 C 
BRANCH  34  35
ATOM     35  NE  ARG A   2      13.096 -10.241   2.731  0.00  0.00    -0.265 N 
ATOM     36  HE  ARG A   2      14.135 -10.220   2.777  0.00  0.00    +0.259 HD
ATOM     37  CZ  ARG A   2      12.493  -9.195   2.160  0.00  0.00    +0.342 C 
ATOM     38  NH2 ARG A   2      11.163  -9.116   2.076  0.00  0.00    -0.292 N 
ATOM     39 HH21 ARG A   2      10.571  -9.880   2.460  0.00  0.00    +0.255 HD
ATOM     40 HH22 ARG A   2      10.718  -8.290   1.626  0.00  0.00    +0.255 HD
ATOM     41  NH1 ARG A   2      13.233  -8.203   1.678  0.00  0.00    -0.292 N 
ATOM     42 HH11 ARG A   2      14.270  -8.246   1.748  0.00  0.00    +0.255 HD
ATOM     43 HH12 ARG A   2      12.776  -7.383   1.231  0.00  0.00    +0.255 HD
ENDBRANCH  34  35
ENDBRANCH  33  34
ENDBRANCH  32  33
ENDBRANCH   1  32
TORSDOF 16
REMARK  Name = ../refined-set-2016/3t1l/3t1l_pocket.pdb
REMARK  112 active torsions:
REMARK  status: ('A' for Active; 'I' for Inactive)
REMARK    1  A    between atoms: _1  and  _3
REMARK    2  A    between atoms: _3  and  _4
REMARK    3  A    between atoms: _3  and  _6
REMARK    4  A    between atoms: _6  and  _7
REMARK    5  A    between atoms: _12  and  _14
REMARK    6  A    between atoms: _14  and  _15
REMARK    7  A    between atoms: _14  and  _17
REMARK    8  A    between atoms: _17  and  _18
REMARK    9  A    between atoms: _18  and  _19
REMARK   10  A    between atoms: _19  and  _20
REMARK   11  A    between atoms: _29  and  _31
REMARK   12  A    between atoms: _31  and  _32
REMARK   13  A    between atoms: _31  and  _34
REMARK   14  A    between atoms: _34  and  _35
REMARK   15  A    between atoms: _38  and  _40
REMARK   16  A    between atoms: _40  and  _41
REMARK   17  A    between atoms: _44  and  _46
REMARK   18  A    between atoms: _46  and  _47
REMARK   19  A    between atoms: _46  and  _49
REMARK   20  A    between atoms: _49  and  _50
REMARK   21  A    between atoms: _53  and  _55
REMARK   22  A    between atoms: _55  and  _56
REMARK   23  A    between atoms: _55  and  _58
REMARK   24  A    between atoms: _58  and  _59
REMARK   25  A    between atoms: _59  and  _60
REMARK   26  A    between atoms: _65  and  _67
REMARK   27  A    between atoms: _67  and  _68
REMARK   28  A    between atoms: _67  and  _70
REMARK   29  A    between atoms: _73  and  _75
REMARK   30  A    between atoms: _75  and  _76
REMARK   31  A    between atoms: _75  and  _78
REMARK   32  A    between atoms: _78  and  _79
REMARK   33  A    between atoms: _84  and  _86
REMARK   34  A    between atoms: _86  and  _87
REMARK   35  A    between atoms: _86  and  _89
REMARK   36  A    between atoms: _89  and  _90
REMARK   37  A    between atoms: _96  and  _98
REMARK   38  A    between atoms: _98  and  _99
REMARK   39  A    between atoms: _98  and  _101
REMARK   40  A    between atoms: _101  and  _102
REMARK   41  A    between atoms: _107  and  _109
REMARK   42  A    between atoms: _109  and  _110
REMARK   43  A    between atoms: _109  and  _112
REMARK   44  A    between atoms: _112  and  _113
REMARK   45  A    between atoms: _113  and  _114
REMARK   46  A    between atoms: _114  and  _115
REMARK   47  A    between atoms: _124  and  _126
REMARK   48  A    between atoms: _126  and  _127
REMARK   49  A    between atoms: _126  and  _129
REMARK   50  A    between atoms: _129  and  _130
REMARK   51  A    between atoms: _130  and  _131
REMARK   52  A    between atoms: _134  and  _136
REMARK   53  A    between atoms: _136  and  _137
REMARK   54  A    between atoms: _136  and  _139
REMARK   55  A    between atoms: _142  and  _144
REMARK   56  A    between atoms: _144  and  _145
REMARK   57  A    between atoms: _144  and  _147
REMARK   58  A    between atoms: _149  and  _151
REMARK   59  A    between atoms: _151  and  _152
REMARK   60  A    between atoms: _151  and  _154
REMARK   61  A    between atoms: _154  and  _155
REMARK   62  A    between atoms: _160  and  _162
REMARK   63  A    between atoms: _162  and  _163
REMARK   64  A    between atoms: _162  and  _165
REMARK   65  A    between atoms: _165  and  _166
REMARK   66  A    between atoms: _169  and  _171
REMARK   67  A    between atoms: _171  and  _172
REMARK   68  A    between atoms: _171  and  _174
REMARK   69  A    between atoms: _174  and  _175
REMARK   70  A    between atoms: _175  and  _176
REMARK   71  A    between atoms: _176  and  _177
REMARK   72  A    between atoms: _177  and  _178
REMARK   73  A    between atoms: _182  and  _184
REMARK   74  A    between atoms: _184  and  _185
REMARK   75  A    between atoms: _184  and  _187
REMARK   76  A    between atoms: _187  and  _188
REMARK   77  A    between atoms: _198  and  _200
REMARK   78  A    between atoms: _200  and  _201
REMARK   79  A    between atoms: _203  and  _205
REMARK   80  A    between atoms: _205  and  _206
REMARK   81  A    between atoms: _205  and  _208
REMARK   82  A    between atoms: _208  and  _209
REMARK   83  A    between atoms: _209  and  _210
REMARK   84  A    between atoms: _210  and  _211
REMARK   85  A    between atoms: _220  and  _222
REMARK   86  A    between atoms: _222  and  _223
REMARK   87  A    between atoms: _222  and  _225
REMARK   88  A    between atoms: _225  and  _226
REMARK   89  A    between atoms: _226  and  _227
REMARK   90  A    between atoms: _230  and  _232
REMARK   91  A    between atoms: _232  and  _233
REMARK   92  A    between atoms: _232  and  _235
REMARK   93  A    between atoms: _235  and  _236
REMARK   94  A    between atoms: _236  and  _237
REMARK   95  A    between atoms: _240  and  _242
REMARK   96  A    between atoms: _242  and  _243
REMARK   97  A    between atoms: _242  and  _245
REMARK   98  A    between atoms: _245  and  _246
REMARK   99  A    between atoms: _246  and  _247
REMARK  100  A    between atoms: _247  and  _248
REMARK  101  A    between atoms: _257  and  _259
REMARK  102  A    between atoms: _259  and  _260
REMARK  103  A    between atoms: _259  and  _262
REMARK  104  A    between atoms: _262  and  _263
REMARK  105  A    between atoms: _263  and  _264
REMARK  106  A    between atoms: _264  and  _265
REMARK  107  A    between atoms: _274  and  _276
REMARK  108  A    between atoms: _276  and  _277
REMARK  109  A    between atoms: _276  and  _279
REMARK  110  A    between atoms: _279  and  _280
REMARK  111  A    between atoms: _282  and  _284
REMARK  112  A    between atoms: _284  and  _285
REMARK                            x       y       z     vdW  Elec       q    Type
REMARK                         _______ _______ _______ _____ _____    ______ ____
ROOT
ATOM      1  CA  ASP A   1      11.641   0.289   1.003  0.00  0.00    +0.144 C 
ENDROOT
BRANCH   1   2
ATOM      2  N   ASP A   1      10.999  -0.196   2.231  0.00  0.00    -0.239 NA
ATOM      3  H   ASP A   1       9.961  -0.239   2.270  0.00  0.00    +0.142 HD
ENDBRANCH   1   2
BRANCH   1   4
ATOM      4  C   ASP A   1      11.096   1.664   0.615  0.00  0.00    +0.225 C 
ATOM      5  O   ASP A   1       9.951   1.803   0.179  0.00  0.00    -0.287 OA
ENDBRANCH   1   4
BRANCH   1   6
ATOM      6  CB  ASP A   1      11.406  -0.709  -0.126  0.00  0.00    +0.139 C 
BRANCH   6   7
ATOM      7  CG  ASP A   1      12.184  -1.990   0.061  0.00  0.00    +0.367 C 
ATOM      8  OD2 ASP A   1      11.575  -3.070   0.236  0.00  0.00    -0.246 OA
ATOM      9  OD1 ASP A   1      13.416  -1.910   0.044  0.00  0.00    -0.246 OA
ENDBRANCH   6   7
ENDBRANCH   1   6
TORSDOF 4
REMARK  Name = ../refined-set-2016/3t1l/3t1l_pocket.pdb
REMARK  112 active torsions:
REMARK  status: ('A' for Active; 'I' for Inactive)
REMARK    1  A    between atoms: _1  and  _3
REMARK    2  A    between atoms: _3  and  _4
REMARK    3  A    between atoms: _3  and  _6
REMARK    4  A    between atoms: _6  and  _7
REMARK    5  A    between atoms: _12  and  _14
REMARK    6  A    between atoms: _14  and  _15
REMARK    7  A    between atoms: _14  and  _17
REMARK    8  A    between atoms: _17  and  _18
REMARK    9  A    between atoms: _18  and  _19
REMARK   10  A    between atoms: _19  and  _20
REMARK   11  A    between atoms: _29  and  _31
REMARK   12  A    between atoms: _31  and  _32
REMARK   13  A    between atoms: _31  and  _34
REMARK   14  A    between atoms: _34  and  _35
REMARK   15  A    between atoms: _38  and  _40
REMARK   16  A    between atoms: _40  and  _41
REMARK   17  A    between atoms: _44  and  _46
REMARK   18  A    between atoms: _46  and  _47
REMARK   19  A    between atoms: _46  and  _49
REMARK   20  A    between atoms: _49  and  _50
REMARK   21  A    between atoms: _53  and  _55
REMARK   22  A    between atoms: _55  and  _56
REMARK   23  A    between atoms: _55  and  _58
REMARK   24  A    between atoms: _58  and  _59
REMARK   25  A    between atoms: _59  and  _60
REMARK   26  A    between atoms: _65  and  _67
REMARK   27  A    between atoms: _67  and  _68
REMARK   28  A    between atoms: _67  and  _70
REMARK   29  A    between atoms: _73  and  _75
REMARK   30  A    between atoms: _75  and  _76
REMARK   31  A    between atoms: _75  and  _78
REMARK   32  A    between atoms: _78  and  _79
REMARK   33  A    between atoms: _84  and  _86
REMARK   34  A    between atoms: _86  and  _87
REMARK   35  A    between atoms: _86  and  _89
REMARK   36  A    between atoms: _89  and  _90
REMARK   37  A    between atoms: _96  and  _98
REMARK   38  A    between atoms: _98  and  _99
REMARK   39  A    between atoms: _98  and  _101
REMARK   40  A    between atoms: _101  and  _102
REMARK   41  A    between atoms: _107  and  _109
REMARK   42  A    between atoms: _109  and  _110
REMARK   43  A    between atoms: _109  and  _112
REMARK   44  A    between atoms: _112  and  _113
REMARK   45  A    between atoms: _113  and  _114
REMARK   46  A    between atoms: _114  and  _115
REMARK   47  A    between atoms: _124  and  _126
REMARK   48  A    between atoms: _126  and  _127
REMARK   49  A    between atoms: _126  and  _129
REMARK   50  A    between atoms: _129  and  _130
REMARK   51  A    between atoms: _130  and  _131
REMARK   52  A    between atoms: _134  and  _136
REMARK   53  A    between atoms: _136  and  _137
REMARK   54  A    between atoms: _136  and  _139
REMARK   55  A    between atoms: _142  and  _144
REMARK   56  A    between atoms: _144  and  _145
REMARK   57  A    between atoms: _144  and  _147
REMARK   58  A    between atoms: _149  and  _151
REMARK   59  A    between atoms: _151  and  _152
REMARK   60  A    between atoms: _151  and  _154
REMARK   61  A    between atoms: _154  and  _155
REMARK   62  A    between atoms: _160  and  _162
REMARK   63  A    between atoms: _162  and  _163
REMARK   64  A    between atoms: _162  and  _165
REMARK   65  A    between atoms: _165  and  _166
REMARK   66  A    between atoms: _169  and  _171
REMARK   67  A    between atoms: _171  and  _172
REMARK   68  A    between atoms: _171  and  _174
REMARK   69  A    between atoms: _174  and  _175
REMARK   70  A    between atoms: _175  and  _176
REMARK   71  A    between atoms: _176  and  _177
REMARK   72  A    between atoms: _177  and  _178
REMARK   73  A    between atoms: _182  and  _184
REMARK   74  A    between atoms: _184  and  _185
REMARK   75  A    between atoms: _184  and  _187
REMARK   76  A    between atoms: _187  and  _188
REMARK   77  A    between atoms: _198  and  _200
REMARK   78  A    between atoms: _200  and  _201
REMARK   79  A    between atoms: _203  and  _205
REMARK   80  A    between atoms: _205  and  _206
REMARK   81  A    between atoms: _205  and  _208
REMARK   82  A    between atoms: _208  and  _209
REMARK   83  A    between atoms: _209  and  _210
REMARK   84  A    between atoms: _210  and  _211
REMARK   85  A    between atoms: _220  and  _222
REMARK   86  A    between atoms: _222  and  _223
REMARK   87  A    between atoms: _222  and  _225
REMARK   88  A    between atoms: _225  and  _226
REMARK   89  A    between atoms: _226  and  _227
REMARK   90  A    between atoms: _230  and  _232
REMARK   91  A    between atoms: _232  and  _233
REMARK   92  A    between atoms: _232  and  _235
REMARK   93  A    between atoms: _235  and  _236
REMARK   94  A    between atoms: _236  and  _237
REMARK   95  A    between atoms: _240  and  _242
REMARK   96  A    between atoms: _242  and  _243
REMARK   97  A    between atoms: _242  and  _245
REMARK   98  A    between atoms: _245  and  _246
REMARK   99  A    between atoms: _246  and  _247
REMARK  100  A    between atoms: _247  and  _248
REMARK  101  A    between atoms: _257  and  _259
REMARK  102  A    between atoms: _259  and  _260
REMARK  103  A    between atoms: _259  and  _262
REMARK  104  A    between atoms: _262  and  _263
REMARK  105  A    between atoms: _263  and  _264
REMARK  106  A    between atoms: _264  and  _265
REMARK  107  A    between atoms: _274  and  _276
REMARK  108  A    between atoms: _276  and  _277
REMARK  109  A    between atoms: _276  and  _279
REMARK  110  A    between atoms: _279  and  _280
REMARK  111  A    between atoms: _282  and  _284
REMARK  112  A    between atoms: _284  and  _285
REMARK                            x       y       z     vdW  Elec       q    Type
REMARK                         _______ _______ _______ _____ _____    ______ ____
ROOT
ATOM      1  CB  GLN A   1      10.137   3.399  -4.055  0.00  0.00    +0.035 C 
ENDROOT
BRANCH   1   2
ATOM      2  CA  GLN A   1      11.237   4.257  -3.412  0.00  0.00    +0.134 C 
BRANCH   2   3
ATOM      3  N   GLN A   1      11.034   4.359  -1.967  0.00  0.00    -0.239 NA
ATOM      4  H   GLN A   1      10.092   4.622  -1.615  0.00  0.00    +0.142 HD
ENDBRANCH   2   3
BRANCH   2   5
ATOM      5  C   GLN A   1      11.219   5.609  -4.109  0.00  0.00    +0.224 C 
ATOM      6  O   GLN A   1      10.394   6.467  -3.792  0.00  0.00    -0.287 OA
ENDBRANCH   2   5
ENDBRANCH   1   2
BRANCH   1   7
ATOM      7  CG  GLN A   1       9.978   2.000  -3.459  0.00  0.00    +0.087 C 
BRANCH   7   8
ATOM      8  CD  GLN A   1      10.659   0.907  -4.280  0.00  0.00    +0.219 C 
ATOM      9  NE2 GLN A   1      10.695  -0.298  -3.728  0.00  0.00    -0.329 N 
ATOM     10 HE21 GLN A   1      10.291  -0.449  -2.782  0.00  0.00    +0.145 HD
ATOM     11 HE22 GLN A   1      11.127  -1.092  -4.241  0.00  0.00    +0.145 HD
ATOM     12  OE1 GLN A   1      11.126   1.136  -5.403  0.00  0.00    -0.275 OA
ENDBRANCH   7   8
ENDBRANCH   1   7
TORSDOF 5
REMARK  Name = ../refined-set-2016/3t1l/3t1l_pocket.pdb
REMARK  112 active torsions:
REMARK  status: ('A' for Active; 'I' for Inactive)
REMARK    1  A    between atoms: _1  and  _3
REMARK    2  A    between atoms: _3  and  _4
REMARK    3  A    between atoms: _3  and  _6
REMARK    4  A    between atoms: _6  and  _7
REMARK    5  A    between atoms: _12  and  _14
REMARK    6  A    between atoms: _14  and  _15
REMARK    7  A    between atoms: _14  and  _17
REMARK    8  A    between atoms: _17  and  _18
REMARK    9  A    between atoms: _18  and  _19
REMARK   10  A    between atoms: _19  and  _20
REMARK   11  A    between atoms: _29  and  _31
REMARK   12  A    between atoms: _31  and  _32
REMARK   13  A    between atoms: _31  and  _34
REMARK   14  A    between atoms: _34  and  _35
REMARK   15  A    between atoms: _38  and  _40
REMARK   16  A    between atoms: _40  and  _41
REMARK   17  A    between atoms: _44  and  _46
REMARK   18  A    between atoms: _46  and  _47
REMARK   19  A    between atoms: _46  and  _49
REMARK   20  A    between atoms: _49  and  _50
REMARK   21  A    between atoms: _53  and  _55
REMARK   22  A    between atoms: _55  and  _56
REMARK   23  A    between atoms: _55  and  _58
REMARK   24  A    between atoms: _58  and  _59
REMARK   25  A    between atoms: _59  and  _60
REMARK   26  A    between atoms: _65  and  _67
REMARK   27  A    between atoms: _67  and  _68
REMARK   28  A    between atoms: _67  and  _70
REMARK   29  A    between atoms: _73  and  _75
REMARK   30  A    between atoms: _75  and  _76
REMARK   31  A    between atoms: _75  and  _78
REMARK   32  A    between atoms: _78  and  _79
REMARK   33  A    between atoms: _84  and  _86
REMARK   34  A    between atoms: _86  and  _87
REMARK   35  A    between atoms: _86  and  _89
REMARK   36  A    between atoms: _89  and  _90
REMARK   37  A    between atoms: _96  and  _98
REMARK   38  A    between atoms: _98  and  _99
REMARK   39  A    between atoms: _98  and  _101
REMARK   40  A    between atoms: _101  and  _102
REMARK   41  A    between atoms: _107  and  _109
REMARK   42  A    between atoms: _109  and  _110
REMARK   43  A    between atoms: _109  and  _112
REMARK   44  A    between atoms: _112  and  _113
REMARK   45  A    between atoms: _113  and  _114
REMARK   46  A    between atoms: _114  and  _115
REMARK   47  A    between atoms: _124  and  _126
REMARK   48  A    between atoms: _126  and  _127
REMARK   49  A    between atoms: _126  and  _129
REMARK   50  A    between atoms: _129  and  _130
REMARK   51  A    between atoms: _130  and  _131
REMARK   52  A    between atoms: _134  and  _136
REMARK   53  A    between atoms: _136  and  _137
REMARK   54  A    between atoms: _136  and  _139
REMARK   55  A    between atoms: _142  and  _144
REMARK   56  A    between atoms: _144  and  _145
REMARK   57  A    between atoms: _144  and  _147
REMARK   58  A    between atoms: _149  and  _151
REMARK   59  A    between atoms: _151  and  _152
REMARK   60  A    between atoms: _151  and  _154
REMARK   61  A    between atoms: _154  and  _155
REMARK   62  A    between atoms: _160  and  _162
REMARK   63  A    between atoms: _162  and  _163
REMARK   64  A    between atoms: _162  and  _165
REMARK   65  A    between atoms: _165  and  _166
REMARK   66  A    between atoms: _169  and  _171
REMARK   67  A    between atoms: _171  and  _172
REMARK   68  A    between atoms: _171  and  _174
REMARK   69  A    between atoms: _174  and  _175
REMARK   70  A    between atoms: _175  and  _176
REMARK   71  A    between atoms: _176  and  _177
REMARK   72  A    between atoms: _177  and  _178
REMARK   73  A    between atoms: _182  and  _184
REMARK   74  A    between atoms: _184  and  _185
REMARK   75  A    between atoms: _184  and  _187
REMARK   76  A    between atoms: _187  and  _188
REMARK   77  A    between atoms: _198  and  _200
REMARK   78  A    between atoms: _200  and  _201
REMARK   79  A    between atoms: _203  and  _205
REMARK   80  A    between atoms: _205  and  _206
REMARK   81  A    between atoms: _205  and  _208
REMARK   82  A    between atoms: _208  and  _209
REMARK   83  A    between atoms: _209  and  _210
REMARK   84  A    between atoms: _210  and  _211
REMARK   85  A    between atoms: _220  and  _222
REMARK   86  A    between atoms: _222  and  _223
REMARK   87  A    between atoms: _222  and  _225
REMARK   88  A    between atoms: _225  and  _226
REMARK   89  A    between atoms: _226  and  _227
REMARK   90  A    between atoms: _230  and  _232
REMARK   91  A    between atoms: _232  and  _233
REMARK   92  A    between atoms: _232  and  _235
REMARK   93  A    between atoms: _235  and  _236
REMARK   94  A    between atoms: _236  and  _237
REMARK   95  A    between atoms: _240  and  _242
REMARK   96  A    between atoms: _242  and  _243
REMARK   97  A    between atoms: _242  and  _245
REMARK   98  A    between atoms: _245  and  _246
REMARK   99  A    between atoms: _246  and  _247
REMARK  100  A    between atoms: _247  and  _248
REMARK  101  A    between atoms: _257  and  _259
REMARK  102  A    between atoms: _259  and  _260
REMARK  103  A    between atoms: _259  and  _262
REMARK  104  A    between atoms: _262  and  _263
REMARK  105  A    between atoms: _263  and  _264
REMARK  106  A    between atoms: _264  and  _265
REMARK  107  A    between atoms: _274  and  _276
REMARK  108  A    between atoms: _276  and  _277
REMARK  109  A    between atoms: _276  and  _279
REMARK  110  A    between atoms: _279  and  _280
REMARK  111  A    between atoms: _282  and  _284
REMARK  112  A    between atoms: _284  and  _285
REMARK                            x       y       z     vdW  Elec       q    Type
REMARK                         _______ _______ _______ _____ _____    ______ ____
ROOT
ATOM      1  CA  VAL A   1      15.151   2.180  -3.710  0.00  0.00    +0.133 C 
ENDROOT
BRANCH   1   2
ATOM      2  CB  VAL A   1      15.227   0.757  -3.150  0.00  0.00    +0.023 C 
ATOM      3  CG2 VAL A   1      14.923   0.768  -1.667  0.00  0.00    +0.002 C 
ATOM      4  CG1 VAL A   1      14.261  -0.171  -3.911  0.00  0.00    +0.002 C 
ENDBRANCH   1   2
BRANCH   1   5
ATOM      5  N   VAL A   1      15.440   2.247  -5.133  0.00  0.00    -0.239 NA
ATOM      6  H   VAL A   1      16.314   1.816  -5.496  0.00  0.00    +0.142 HD
ENDBRANCH   1   5
BRANCH   1   7
ATOM      7  C   VAL A   1      16.134   3.078  -3.002  0.00  0.00    +0.224 C 
ATOM      8  O   VAL A   1      17.300   2.757  -2.892  0.00  0.00    -0.287 OA
ENDBRANCH   1   7
TORSDOF 3
REMARK  Name = ../refined-set-2016/3t1l/3t1l_pocket.pdb
REMARK  112 active torsions:
REMARK  status: ('A' for Active; 'I' for Inactive)
REMARK    1  A    between atoms: _1  and  _3
REMARK    2  A    between atoms: _3  and  _4
REMARK    3  A    between atoms: _3  and  _6
REMARK    4  A    between atoms: _6  and  _7
REMARK    5  A    between atoms: _12  and  _14
REMARK    6  A    between atoms: _14  and  _15
REMARK    7  A    between atoms: _14  and  _17
REMARK    8  A    between atoms: _17  and  _18
REMARK    9  A    between atoms: _18  and  _19
REMARK   10  A    between atoms: _19  and  _20
REMARK   11  A    between atoms: _29  and  _31
REMARK   12  A    between atoms: _31  and  _32
REMARK   13  A    between atoms: _31  and  _34
REMARK   14  A    between atoms: _34  and  _35
REMARK   15  A    between atoms: _38  and  _40
REMARK   16  A    between atoms: _40  and  _41
REMARK   17  A    between atoms: _44  and  _46
REMARK   18  A    between atoms: _46  and  _47
REMARK   19  A    between atoms: _46  and  _49
REMARK   20  A    between atoms: _49  and  _50
REMARK   21  A    between atoms: _53  and  _55
REMARK   22  A    between atoms: _55  and  _56
REMARK   23  A    between atoms: _55  and  _58
REMARK   24  A    between atoms: _58  and  _59
REMARK   25  A    between atoms: _59  and  _60
REMARK   26  A    between atoms: _65  and  _67
REMARK   27  A    between atoms: _67  and  _68
REMARK   28  A    between atoms: _67  and  _70
REMARK   29  A    between atoms: _73  and  _75
REMARK   30  A    between atoms: _75  and  _76
REMARK   31  A    between atoms: _75  and  _78
REMARK   32  A    between atoms: _78  and  _79
REMARK   33  A    between atoms: _84  and  _86
REMARK   34  A    between atoms: _86  and  _87
REMARK   35  A    between atoms: _86  and  _89
REMARK   36  A    between atoms: _89  and  _90
REMARK   37  A    between atoms: _96  and  _98
REMARK   38  A    between atoms: _98  and  _99
REMARK   39  A    between atoms: _98  and  _101
REMARK   40  A    between atoms: _101  and  _102
REMARK   41  A    between atoms: _107  and  _109
REMARK   42  A    between atoms: _109  and  _110
REMARK   43  A    between atoms: _109  and  _112
REMARK   44  A    between atoms: _112  and  _113
REMARK   45  A    between atoms: _113  and  _114
REMARK   46  A    between atoms: _114  and  _115
REMARK   47  A    between atoms: _124  and  _126
REMARK   48  A    between atoms: _126  and  _127
REMARK   49  A    between atoms: _126  and  _129
REMARK   50  A    between atoms: _129  and  _130
REMARK   51  A    between atoms: _130  and  _131
REMARK   52  A    between atoms: _134  and  _136
REMARK   53  A    between atoms: _136  and  _137
REMARK   54  A    between atoms: _136  and  _139
REMARK   55  A    between atoms: _142  and  _144
REMARK   56  A    between atoms: _144  and  _145
REMARK   57  A    between atoms: _144  and  _147
REMARK   58  A    between atoms: _149  and  _151
REMARK   59  A    between atoms: _151  and  _152
REMARK   60  A    between atoms: _151  and  _154
REMARK   61  A    between atoms: _154  and  _155
REMARK   62  A    between atoms: _160  and  _162
REMARK   63  A    between atoms: _162  and  _163
REMARK   64  A    between atoms: _162  and  _165
REMARK   65  A    between atoms: _165  and  _166
REMARK   66  A    between atoms: _169  and  _171
REMARK   67  A    between atoms: _171  and  _172
REMARK   68  A    between atoms: _171  and  _174
REMARK   69  A    between atoms: _174  and  _175
REMARK   70  A    between atoms: _175  and  _176
REMARK   71  A    between atoms: _176  and  _177
REMARK   72  A    between atoms: _177  and  _178
REMARK   73  A    between atoms: _182  and  _184
REMARK   74  A    between atoms: _184  and  _185
REMARK   75  A    between atoms: _184  and  _187
REMARK   76  A    between atoms: _187  and  _188
REMARK   77  A    between atoms: _198  and  _200
REMARK   78  A    between atoms: _200  and  _201
REMARK   79  A    between atoms: _203  and  _205
REMARK   80  A    between atoms: _205  and  _206
REMARK   81  A    between atoms: _205  and  _208
REMARK   82  A    between atoms: _208  and  _209
REMARK   83  A    between atoms: _209  and  _210
REMARK   84  A    between atoms: _210  and  _211
REMARK   85  A    between atoms: _220  and  _222
REMARK   86  A    between atoms: _222  and  _223
REMARK   87  A    between atoms: _222  and  _225
REMARK   88  A    between atoms: _225  and  _226
REMARK   89  A    between atoms: _226  and  _227
REMARK   90  A    between atoms: _230  and  _232
REMARK   91  A    between atoms: _232  and  _233
REMARK   92  A    between atoms: _232  and  _235
REMARK   93  A    between atoms: _235  and  _236
REMARK   94  A    between atoms: _236  and  _237
REMARK   95  A    between atoms: _240  and  _242
REMARK   96  A    between atoms: _242  and  _243
REMARK   97  A    between atoms: _242  and  _245
REMARK   98  A    between atoms: _245  and  _246
REMARK   99  A    between atoms: _246  and  _247
REMARK  100  A    between atoms: _247  and  _248
REMARK  101  A    between atoms: _257  and  _259
REMARK  102  A    between atoms: _259  and  _260
REMARK  103  A    between atoms: _259  and  _262
REMARK  104  A    between atoms: _262  and  _263
REMARK  105  A    between atoms: _263  and  _264
REMARK  106  A    between atoms: _264  and  _265
REMARK  107  A    between atoms: _274  and  _276
REMARK  108  A    between atoms: _276  and  _277
REMARK  109  A    between atoms: _276  and  _279
REMARK  110  A    between atoms: _279  and  _280
REMARK  111  A    between atoms: _282  and  _284
REMARK  112  A    between atoms: _284  and  _285
REMARK                            x       y       z     vdW  Elec       q    Type
REMARK                         _______ _______ _______ _____ _____    ______ ____
ROOT
ATOM      1  CA  PHE A   2      15.823  -1.196   5.780  0.00  0.00    +0.153 C 
ENDROOT
BRANCH   1   3
ATOM      2  C   HIS A   1      16.550  -0.678   3.481  0.00  0.00    +0.239 C 
ATOM      3  N   PHE A   2      15.584  -0.875   4.375  0.00  0.00    -0.297 N 
ATOM      4  H   PHE A   2      14.598  -0.796   4.054  0.00  0.00    +0.150 HD
ATOM      5  O   HIS A   1      17.745  -0.685   3.749  0.00  0.00    -0.274 OA
BRANCH   2   6
ATOM      6  CA  HIS A   1      16.102  -0.381   2.068  0.00  0.00    +0.151 C 
BRANCH   6   7
ATOM      7  N   HIS A   1      16.566   0.972   1.790  0.00  0.00    -0.238 NA
ATOM      8  H   HIS A   1      17.586   1.093   1.629  0.00  0.00    +0.142 HD
ENDBRANCH   6   7
BRANCH   6   9
ATOM      9  CB  HIS A   1      16.775  -1.312   1.057  0.00  0.00    +0.074 C 
BRANCH   9  10
ATOM     10  CG  HIS A   1      16.529  -2.781   1.235  0.00  0.00    +0.082 A 
ATOM     11  CD2 HIS A   1      17.391  -3.789   1.504  0.00  0.00    +0.115 A 
ATOM     12  NE2 HIS A   1      16.684  -4.965   1.434  0.00  0.00    -0.221 NA
ATOM     13  CE1 HIS A   1      15.433  -4.690   1.118  0.00  0.00    +0.199 A 
ATOM     14  ND1 HIS A   1      15.322  -3.382   0.945  0.00  0.00    -0.227 NA
ENDBRANCH   9  10
ENDBRANCH   6   9
ENDBRANCH   2   6
ENDBRANCH   1   3
BRANCH   1  15
ATOM     15  C   PHE A   2      15.347  -2.628   5.958  0.00  0.00    +0.241 C 
ATOM     16  N   ASN A   3      16.266  -3.543   6.242  0.00  0.00    -0.298 N 
ATOM     17  H   ASN A   3      17.197  -3.237   6.590  0.00  0.00    +0.150 HD
ATOM     18  O   PHE A   2      14.150  -2.904   5.809  0.00  0.00    -0.273 OA
BRANCH  16  19
ATOM     19  CA  ASN A   3      15.998  -4.981   6.076  0.00  0.00    +0.146 C 
BRANCH  19  20
ATOM     20  C   ASN A   3      16.518  -5.839   7.231  0.00  0.00    +0.227 C 
ATOM     21  O   ASN A   3      17.603  -6.416   7.142  0.00  0.00    -0.286 OA
ENDBRANCH  19  20
BRANCH  19  22
ATOM     22  CB  ASN A   3      16.611  -5.419   4.735  0.00  0.00    +0.112 C 
BRANCH  22  23
ATOM     23  CG  ASN A   3      16.465  -6.906   4.429  0.00  0.00    +0.222 C 
ATOM     24  ND2 ASN A   3      15.389  -7.543   4.892  0.00  0.00    -0.329 N 
ATOM     25 HD21 ASN A   3      14.683  -7.029   5.457  0.00  0.00    +0.145 HD
ATOM     26 HD22 ASN A   3      15.256  -8.554   4.689  0.00  0.00    +0.145 HD
ATOM     27  OD1 ASN A   3      17.326  -7.467   3.759  0.00  0.00    -0.275 OA
ENDBRANCH  22  23
ENDBRANCH  19  22
ENDBRANCH  16  19
ENDBRANCH   1  15
BRANCH   1  28
ATOM     28  CB  PHE A   2      15.045  -0.233   6.671  0.00  0.00    +0.055 C 
BRANCH  28  29
ATOM     29  CG  PHE A   2      15.050  -0.590   8.141  0.00  0.00    -0.020 A 
ATOM     30  CD2 PHE A   2      16.105  -0.217   8.956  0.00  0.00    -0.004 A 
ATOM     31  CE2 PHE A   2      16.104  -0.522  10.316  0.00  0.00    -0.000 A 
ATOM     32  CZ  PHE A   2      15.041  -1.203  10.867  0.00  0.00    -0.000 A 
ATOM     33  CE1 PHE A   2      13.976  -1.582  10.073  0.00  0.00    -0.000 A 
ATOM     34  CD1 PHE A   2      13.975  -1.266   8.719  0.00  0.00    -0.004 A 
ENDBRANCH  28  29
ENDBRANCH   1  28
TORSDOF 12
REMARK  Name = ../refined-set-2016/3t1l/3t1l_pocket.pdb
REMARK  112 active torsions:
REMARK  status: ('A' for Active; 'I' for Inactive)
REMARK    1  A    between atoms: _1  and  _3
REMARK    2  A    between atoms: _3  and  _4
REMARK    3  A    between atoms: _3  and  _6
REMARK    4  A    between atoms: _6  and  _7
REMARK    5  A    between atoms: _12  and  _14
REMARK    6  A    between atoms: _14  and  _15
REMARK    7  A    between atoms: _14  and  _17
REMARK    8  A    between atoms: _17  and  _18
REMARK    9  A    between atoms: _18  and  _19
REMARK   10  A    between atoms: _19  and  _20
REMARK   11  A    between atoms: _29  and  _31
REMARK   12  A    between atoms: _31  and  _32
REMARK   13  A    between atoms: _31  and  _34
REMARK   14  A    between atoms: _34  and  _35
REMARK   15  A    between atoms: _38  and  _40
REMARK   16  A    between atoms: _40  and  _41
REMARK   17  A    between atoms: _44  and  _46
REMARK   18  A    between atoms: _46  and  _47
REMARK   19  A    between atoms: _46  and  _49
REMARK   20  A    between atoms: _49  and  _50
REMARK   21  A    between atoms: _53  and  _55
REMARK   22  A    between atoms: _55  and  _56
REMARK   23  A    between atoms: _55  and  _58
REMARK   24  A    between atoms: _58  and  _59
REMARK   25  A    between atoms: _59  and  _60
REMARK   26  A    between atoms: _65  and  _67
REMARK   27  A    between atoms: _67  and  _68
REMARK   28  A    between atoms: _67  and  _70
REMARK   29  A    between atoms: _73  and  _75
REMARK   30  A    between atoms: _75  and  _76
REMARK   31  A    between atoms: _75  and  _78
REMARK   32  A    between atoms: _78  and  _79
REMARK   33  A    between atoms: _84  and  _86
REMARK   34  A    between atoms: _86  and  _87
REMARK   35  A    between atoms: _86  and  _89
REMARK   36  A    between atoms: _89  and  _90
REMARK   37  A    between atoms: _96  and  _98
REMARK   38  A    between atoms: _98  and  _99
REMARK   39  A    between atoms: _98  and  _101
REMARK   40  A    between atoms: _101  and  _102
REMARK   41  A    between atoms: _107  and  _109
REMARK   42  A    between atoms: _109  and  _110
REMARK   43  A    between atoms: _109  and  _112
REMARK   44  A    between atoms: _112  and  _113
REMARK   45  A    between atoms: _113  and  _114
REMARK   46  A    between atoms: _114  and  _115
REMARK   47  A    between atoms: _124  and  _126
REMARK   48  A    between atoms: _126  and  _127
REMARK   49  A    between atoms: _126  and  _129
REMARK   50  A    between atoms: _129  and  _130
REMARK   51  A    between atoms: _130  and  _131
REMARK   52  A    between atoms: _134  and  _136
REMARK   53  A    between atoms: _136  and  _137
REMARK   54  A    between atoms: _136  and  _139
REMARK   55  A    between atoms: _142  and  _144
REMARK   56  A    between atoms: _144  and  _145
REMARK   57  A    between atoms: _144  and  _147
REMARK   58  A    between atoms: _149  and  _151
REMARK   59  A    between atoms: _151  and  _152
REMARK   60  A    between atoms: _151  and  _154
REMARK   61  A    between atoms: _154  and  _155
REMARK   62  A    between atoms: _160  and  _162
REMARK   63  A    between atoms: _162  and  _163
REMARK   64  A    between atoms: _162  and  _165
REMARK   65  A    between atoms: _165  and  _166
REMARK   66  A    between atoms: _169  and  _171
REMARK   67  A    between atoms: _171  and  _172
REMARK   68  A    between atoms: _171  and  _174
REMARK   69  A    between atoms: _174  and  _175
REMARK   70  A    between atoms: _175  and  _176
REMARK   71  A    between atoms: _176  and  _177
REMARK   72  A    between atoms: _177  and  _178
REMARK   73  A    between atoms: _182  and  _184
REMARK   74  A    between atoms: _184  and  _185
REMARK   75  A    between atoms: _184  and  _187
REMARK   76  A    between atoms: _187  and  _188
REMARK   77  A    between atoms: _198  and  _200
REMARK   78  A    between atoms: _200  and  _201
REMARK   79  A    between atoms: _203  and  _205
REMARK   80  A    between atoms: _205  and  _206
REMARK   81  A    between atoms: _205  and  _208
REMARK   82  A    between atoms: _208  and  _209
REMARK   83  A    between atoms: _209  and  _210
REMARK   84  A    between atoms: _210  and  _211
REMARK   85  A    between atoms: _220  and  _222
REMARK   86  A    between atoms: _222  and  _223
REMARK   87  A    between atoms: _222  and  _225
REMARK   88  A    between atoms: _225  and  _226
REMARK   89  A    between atoms: _226  and  _227
REMARK   90  A    between atoms: _230  and  _232
REMARK   91  A    between atoms: _232  and  _233
REMARK   92  A    between atoms: _232  and  _235
REMARK   93  A    between atoms: _235  and  _236
REMARK   94  A    between atoms: _236  and  _237
REMARK   95  A    between atoms: _240  and  _242
REMARK   96  A    between atoms: _242  and  _243
REMARK   97  A    between atoms: _242  and  _245
REMARK   98  A    between atoms: _245  and  _246
REMARK   99  A    between atoms: _246  and  _247
REMARK  100  A    between atoms: _247  and  _248
REMARK  101  A    between atoms: _257  and  _259
REMARK  102  A    between atoms: _259  and  _260
REMARK  103  A    between atoms: _259  and  _262
REMARK  104  A    between atoms: _262  and  _263
REMARK  105  A    between atoms: _263  and  _264
REMARK  106  A    between atoms: _264  and  _265
REMARK  107  A    between atoms: _274  and  _276
REMARK  108  A    between atoms: _276  and  _277
REMARK  109  A    between atoms: _276  and  _279
REMARK  110  A    between atoms: _279  and  _280
REMARK  111  A    between atoms: _282  and  _284
REMARK  112  A    between atoms: _284  and  _285
REMARK                            x       y       z     vdW  Elec       q    Type
REMARK                         _______ _______ _______ _____ _____    ______ ____
ROOT
ATOM      1  NE  ARG A   1      19.378  -9.297   4.441  0.00  0.00    -0.265 N 
ATOM      2  HE  ARG A   1      18.544  -8.686   4.332  0.00  0.00    +0.259 HD
ATOM      3  CZ  ARG A   1      20.300  -9.261   3.482  0.00  0.00    +0.342 C 
ATOM      4  NH2 ARG A   1      21.391 -10.013   3.565  0.00  0.00    -0.292 N 
ATOM      5 HH21 ARG A   1      21.531 -10.637   4.385  0.00  0.00    +0.255 HD
ATOM      6 HH22 ARG A   1      22.106  -9.978   2.810  0.00  0.00    +0.255 HD
ATOM      7  NH1 ARG A   1      20.132  -8.462   2.440  0.00  0.00    -0.292 N 
ATOM      8 HH11 ARG A   1      19.282  -7.866   2.373  0.00  0.00    +0.255 HD
ATOM      9 HH12 ARG A   1      20.850  -8.430   1.688  0.00  0.00    +0.255 HD
ENDROOT
BRANCH   1  10
ATOM     10  CD  ARG A   1      19.454 -10.133   5.635  0.00  0.00    +0.174 C 
BRANCH  10  11
ATOM     11  CG  ARG A   1      18.254  -9.892   6.505  0.00  0.00    +0.045 C 
BRANCH  11  12
ATOM     12  CB  ARG A   1      18.305 -10.715   7.765  0.00  0.00    +0.029 C 
BRANCH  12  13
ATOM     13  CA  ARG A   1      17.099 -10.496   8.670  0.00  0.00    +0.133 C 
BRANCH  13  14
ATOM     14  N   ARG A   1      17.020  -9.099   9.057  0.00  0.00    -0.239 NA
ATOM     15  H   ARG A   1      17.838  -8.670   9.535  0.00  0.00    +0.142 HD
ENDBRANCH  13  14
BRANCH  13  16
ATOM     16  C   ARG A   1      17.239 -11.324   9.940  0.00  0.00    +0.224 C 
ATOM     17  O   ARG A   1      18.151 -11.093  10.735  0.00  0.00    -0.287 OA
ENDBRANCH  13  16
ENDBRANCH  12  13
ENDBRANCH  11  12
ENDBRANCH  10  11
ENDBRANCH   1  10
TORSDOF 6
REMARK  Name = ../refined-set-2016/3t1l/3t1l_pocket.pdb
REMARK  112 active torsions:
REMARK  status: ('A' for Active; 'I' for Inactive)
REMARK    1  A    between atoms: _1  and  _3
REMARK    2  A    between atoms: _3  and  _4
REMARK    3  A    between atoms: _3  and  _6
REMARK    4  A    between atoms: _6  and  _7
REMARK    5  A    between atoms: _12  and  _14
REMARK    6  A    between atoms: _14  and  _15
REMARK    7  A    between atoms: _14  and  _17
REMARK    8  A    between atoms: _17  and  _18
REMARK    9  A    between atoms: _18  and  _19
REMARK   10  A    between atoms: _19  and  _20
REMARK   11  A    between atoms: _29  and  _31
REMARK   12  A    between atoms: _31  and  _32
REMARK   13  A    between atoms: _31  and  _34
REMARK   14  A    between atoms: _34  and  _35
REMARK   15  A    between atoms: _38  and  _40
REMARK   16  A    between atoms: _40  and  _41
REMARK   17  A    between atoms: _44  and  _46
REMARK   18  A    between atoms: _46  and  _47
REMARK   19  A    between atoms: _46  and  _49
REMARK   20  A    between atoms: _49  and  _50
REMARK   21  A    between atoms: _53  and  _55
REMARK   22  A    between atoms: _55  and  _56
REMARK   23  A    between atoms: _55  and  _58
REMARK   24  A    between atoms: _58  and  _59
REMARK   25  A    between atoms: _59  and  _60
REMARK   26  A    between atoms: _65  and  _67
REMARK   27  A    between atoms: _67  and  _68
REMARK   28  A    between atoms: _67  and  _70
REMARK   29  A    between atoms: _73  and  _75
REMARK   30  A    between atoms: _75  and  _76
REMARK   31  A    between atoms: _75  and  _78
REMARK   32  A    between atoms: _78  and  _79
REMARK   33  A    between atoms: _84  and  _86
REMARK   34  A    between atoms: _86  and  _87
REMARK   35  A    between atoms: _86  and  _89
REMARK   36  A    between atoms: _89  and  _90
REMARK   37  A    between atoms: _96  and  _98
REMARK   38  A    between atoms: _98  and  _99
REMARK   39  A    between atoms: _98  and  _101
REMARK   40  A    between atoms: _101  and  _102
REMARK   41  A    between atoms: _107  and  _109
REMARK   42  A    between atoms: _109  and  _110
REMARK   43  A    between atoms: _109  and  _112
REMARK   44  A    between atoms: _112  and  _113
REMARK   45  A    between atoms: _113  and  _114
REMARK   46  A    between atoms: _114  and  _115
REMARK   47  A    between atoms: _124  and  _126
REMARK   48  A    between atoms: _126  and  _127
REMARK   49  A    between atoms: _126  and  _129
REMARK   50  A    between atoms: _129  and  _130
REMARK   51  A    between atoms: _130  and  _131
REMARK   52  A    between atoms: _134  and  _136
REMARK   53  A    between atoms: _136  and  _137
REMARK   54  A    between atoms: _136  and  _139
REMARK   55  A    between atoms: _142  and  _144
REMARK   56  A    between atoms: _144  and  _145
REMARK   57  A    between atoms: _144  and  _147
REMARK   58  A    between atoms: _149  and  _151
REMARK   59  A    between atoms: _151  and  _152
REMARK   60  A    between atoms: _151  and  _154
REMARK   61  A    between atoms: _154  and  _155
REMARK   62  A    between atoms: _160  and  _162
REMARK   63  A    between atoms: _162  and  _163
REMARK   64  A    between atoms: _162  and  _165
REMARK   65  A    between atoms: _165  and  _166
REMARK   66  A    between atoms: _169  and  _171
REMARK   67  A    between atoms: _171  and  _172
REMARK   68  A    between atoms: _171  and  _174
REMARK   69  A    between atoms: _174  and  _175
REMARK   70  A    between atoms: _175  and  _176
REMARK   71  A    between atoms: _176  and  _177
REMARK   72  A    between atoms: _177  and  _178
REMARK   73  A    between atoms: _182  and  _184
REMARK   74  A    between atoms: _184  and  _185
REMARK   75  A    between atoms: _184  and  _187
REMARK   76  A    between atoms: _187  and  _188
REMARK   77  A    between atoms: _198  and  _200
REMARK   78  A    between atoms: _200  and  _201
REMARK   79  A    between atoms: _203  and  _205
REMARK   80  A    between atoms: _205  and  _206
REMARK   81  A    between atoms: _205  and  _208
REMARK   82  A    between atoms: _208  and  _209
REMARK   83  A    between atoms: _209  and  _210
REMARK   84  A    between atoms: _210  and  _211
REMARK   85  A    between atoms: _220  and  _222
REMARK   86  A    between atoms: _222  and  _223
REMARK   87  A    between atoms: _222  and  _225
REMARK   88  A    between atoms: _225  and  _226
REMARK   89  A    between atoms: _226  and  _227
REMARK   90  A    between atoms: _230  and  _232
REMARK   91  A    between atoms: _232  and  _233
REMARK   92  A    between atoms: _232  and  _235
REMARK   93  A    between atoms: _235  and  _236
REMARK   94  A    between atoms: _236  and  _237
REMARK   95  A    between atoms: _240  and  _242
REMARK   96  A    between atoms: _242  and  _243
REMARK   97  A    between atoms: _242  and  _245
REMARK   98  A    between atoms: _245  and  _246
REMARK   99  A    between atoms: _246  and  _247
REMARK  100  A    between atoms: _247  and  _248
REMARK  101  A    between atoms: _257  and  _259
REMARK  102  A    between atoms: _259  and  _260
REMARK  103  A    between atoms: _259  and  _262
REMARK  104  A    between atoms: _262  and  _263
REMARK  105  A    between atoms: _263  and  _264
REMARK  106  A    between atoms: _264  and  _265
REMARK  107  A    between atoms: _274  and  _276
REMARK  108  A    between atoms: _276  and  _277
REMARK  109  A    between atoms: _276  and  _279
REMARK  110  A    between atoms: _279  and  _280
REMARK  111  A    between atoms: _282  and  _284
REMARK  112  A    between atoms: _284  and  _285
REMARK                            x       y       z     vdW  Elec       q    Type
REMARK                         _______ _______ _______ _____ _____    ______ ____
ROOT
ATOM      1  CA  GLU A   1      21.558 -14.877   8.025  0.00  0.00    +0.134 C 
ENDROOT
BRANCH   1   2
ATOM      2  N   GLU A   1      20.484 -14.919   9.005  0.00  0.00    -0.239 NA
ATOM      3  H   GLU A   1      20.555 -14.324   9.855  0.00  0.00    +0.142 HD
ENDBRANCH   1   2
BRANCH   1   4
ATOM      4  C   GLU A   1      22.757 -15.594   8.624  0.00  0.00    +0.224 C 
ATOM      5  O   GLU A   1      23.437 -15.056   9.500  0.00  0.00    -0.287 OA
ENDBRANCH   1   4
BRANCH   1   6
ATOM      6  CB  GLU A   1      21.922 -13.439   7.666  0.00  0.00    +0.037 C 
BRANCH   6   7
ATOM      7  CG  GLU A   1      22.825 -13.365   6.452  0.00  0.00    +0.116 C 
BRANCH   7   8
ATOM      8  CD  GLU A   1      23.449 -12.012   6.279  0.00  0.00    +0.365 C 
ATOM      9  OE2 GLU A   1      24.279 -11.631   7.130  0.00  0.00    -0.246 OA
ATOM     10  OE1 GLU A   1      23.121 -11.328   5.291  0.00  0.00    -0.246 OA
ENDBRANCH   7   8
ENDBRANCH   6   7
ENDBRANCH   1   6
TORSDOF 5
REMARK  Name = ../refined-set-2016/3t1l/3t1l_pocket.pdb
REMARK  112 active torsions:
REMARK  status: ('A' for Active; 'I' for Inactive)
REMARK    1  A    between atoms: _1  and  _3
REMARK    2  A    between atoms: _3  and  _4
REMARK    3  A    between atoms: _3  and  _6
REMARK    4  A    between atoms: _6  and  _7
REMARK    5  A    between atoms: _12  and  _14
REMARK    6  A    between atoms: _14  and  _15
REMARK    7  A    between atoms: _14  and  _17
REMARK    8  A    between atoms: _17  and  _18
REMARK    9  A    between atoms: _18  and  _19
REMARK   10  A    between atoms: _19  and  _20
REMARK   11  A    between atoms: _29  and  _31
REMARK   12  A    between atoms: _31  and  _32
REMARK   13  A    between atoms: _31  and  _34
REMARK   14  A    between atoms: _34  and  _35
REMARK   15  A    between atoms: _38  and  _40
REMARK   16  A    between atoms: _40  and  _41
REMARK   17  A    between atoms: _44  and  _46
REMARK   18  A    between atoms: _46  and  _47
REMARK   19  A    between atoms: _46  and  _49
REMARK   20  A    between atoms: _49  and  _50
REMARK   21  A    between atoms: _53  and  _55
REMARK   22  A    between atoms: _55  and  _56
REMARK   23  A    between atoms: _55  and  _58
REMARK   24  A    between atoms: _58  and  _59
REMARK   25  A    between atoms: _59  and  _60
REMARK   26  A    between atoms: _65  and  _67
REMARK   27  A    between atoms: _67  and  _68
REMARK   28  A    between atoms: _67  and  _70
REMARK   29  A    between atoms: _73  and  _75
REMARK   30  A    between atoms: _75  and  _76
REMARK   31  A    between atoms: _75  and  _78
REMARK   32  A    between atoms: _78  and  _79
REMARK   33  A    between atoms: _84  and  _86
REMARK   34  A    between atoms: _86  and  _87
REMARK   35  A    between atoms: _86  and  _89
REMARK   36  A    between atoms: _89  and  _90
REMARK   37  A    between atoms: _96  and  _98
REMARK   38  A    between atoms: _98  and  _99
REMARK   39  A    between atoms: _98  and  _101
REMARK   40  A    between atoms: _101  and  _102
REMARK   41  A    between atoms: _107  and  _109
REMARK   42  A    between atoms: _109  and  _110
REMARK   43  A    between atoms: _109  and  _112
REMARK   44  A    between atoms: _112  and  _113
REMARK   45  A    between atoms: _113  and  _114
REMARK   46  A    between atoms: _114  and  _115
REMARK   47  A    between atoms: _124  and  _126
REMARK   48  A    between atoms: _126  and  _127
REMARK   49  A    between atoms: _126  and  _129
REMARK   50  A    between atoms: _129  and  _130
REMARK   51  A    between atoms: _130  and  _131
REMARK   52  A    between atoms: _134  and  _136
REMARK   53  A    between atoms: _136  and  _137
REMARK   54  A    between atoms: _136  and  _139
REMARK   55  A    between atoms: _142  and  _144
REMARK   56  A    between atoms: _144  and  _145
REMARK   57  A    between atoms: _144  and  _147
REMARK   58  A    between atoms: _149  and  _151
REMARK   59  A    between atoms: _151  and  _152
REMARK   60  A    between atoms: _151  and  _154
REMARK   61  A    between atoms: _154  and  _155
REMARK   62  A    between atoms: _160  and  _162
REMARK   63  A    between atoms: _162  and  _163
REMARK   64  A    between atoms: _162  and  _165
REMARK   65  A    between atoms: _165  and  _166
REMARK   66  A    between atoms: _169  and  _171
REMARK   67  A    between atoms: _171  and  _172
REMARK   68  A    between atoms: _171  and  _174
REMARK   69  A    between atoms: _174  and  _175
REMARK   70  A    between atoms: _175  and  _176
REMARK   71  A    between atoms: _176  and  _177
REMARK   72  A    between atoms: _177  and  _178
REMARK   73  A    between atoms: _182  and  _184
REMARK   74  A    between atoms: _184  and  _185
REMARK   75  A    between atoms: _184  and  _187
REMARK   76  A    between atoms: _187  and  _188
REMARK   77  A    between atoms: _198  and  _200
REMARK   78  A    between atoms: _200  and  _201
REMARK   79  A    between atoms: _203  and  _205
REMARK   80  A    between atoms: _205  and  _206
REMARK   81  A    between atoms: _205  and  _208
REMARK   82  A    between atoms: _208  and  _209
REMARK   83  A    between atoms: _209  and  _210
REMARK   84  A    between atoms: _210  and  _211
REMARK   85  A    between atoms: _220  and  _222
REMARK   86  A    between atoms: _222  and  _223
REMARK   87  A    between atoms: _222  and  _225
REMARK   88  A    between atoms: _225  and  _226
REMARK   89  A    between atoms: _226  and  _227
REMARK   90  A    between atoms: _230  and  _232
REMARK   91  A    between atoms: _232  and  _233
REMARK   92  A    between atoms: _232  and  _235
REMARK   93  A    between atoms: _235  and  _236
REMARK   94  A    between atoms: _236  and  _237
REMARK   95  A    between atoms: _240  and  _242
REMARK   96  A    between atoms: _242  and  _243
REMARK   97  A    between atoms: _242  and  _245
REMARK   98  A    between atoms: _245  and  _246
REMARK   99  A    between atoms: _246  and  _247
REMARK  100  A    between atoms: _247  and  _248
REMARK  101  A    between atoms: _257  and  _259
REMARK  102  A    between atoms: _259  and  _260
REMARK  103  A    between atoms: _259  and  _262
REMARK  104  A    between atoms: _262  and  _263
REMARK  105  A    between atoms: _263  and  _264
REMARK  106  A    between atoms: _264  and  _265
REMARK  107  A    between atoms: _274  and  _276
REMARK  108  A    between atoms: _276  and  _277
REMARK  109  A    between atoms: _276  and  _279
REMARK  110  A    between atoms: _279  and  _280
REMARK  111  A    between atoms: _282  and  _284
REMARK  112  A    between atoms: _284  and  _285
REMARK                            x       y       z     vdW  Elec       q    Type
REMARK                         _______ _______ _______ _____ _____    ______ ____
ROOT
ATOM      1  CA  ASN A   3      21.196  -0.331   1.277  0.00  0.00    +0.158 C 
ENDROOT
BRANCH   1   4
ATOM      2  C   CYS A   2      21.309  -0.931   3.618  0.00  0.00    +0.242 C 
ATOM      3  O   CYS A   2      22.522  -1.135   3.526  0.00  0.00    -0.273 OA
ATOM      4  N   ASN A   3      20.580  -0.526   2.583  0.00  0.00    -0.297 N 
ATOM      5  H   ASN A   3      19.563  -0.347   2.706  0.00  0.00    +0.150 HD
BRANCH   2   6
ATOM      6  CA  CYS A   2      20.584  -1.149   4.934  0.00  0.00    +0.160 C 
BRANCH   6   9
ATOM      7  C   VAL A   1      20.266  -3.390   5.878  0.00  0.00    +0.238 C 
ATOM      8  O   VAL A   1      19.052  -3.360   5.731  0.00  0.00    -0.274 OA
ATOM      9  N   CYS A   2      21.061  -2.374   5.568  0.00  0.00    -0.297 N 
ATOM     10  H   CYS A   2      22.074  -2.455   5.788  0.00  0.00    +0.150 HD
BRANCH   7  11
ATOM     11  CA  VAL A   1      20.952  -4.635   6.438  0.00  0.00    +0.145 C 
BRANCH  11  12
ATOM     12  CB  VAL A   1      20.971  -5.729   5.366  0.00  0.00    +0.025 C 
ATOM     13  CG2 VAL A   1      21.769  -6.951   5.868  0.00  0.00    +0.002 C 
ATOM     14  CG1 VAL A   1      21.571  -5.202   4.063  0.00  0.00    +0.002 C 
ENDBRANCH  11  12
BRANCH  11  15
ATOM     15  N   VAL A   1      20.249  -5.079   7.630  0.00  0.00    -0.238 NA
ATOM     16  H   VAL A   1      19.312  -5.517   7.522  0.00  0.00    +0.142 HD
ENDBRANCH  11  15
ENDBRANCH   7  11
ENDBRANCH   6   9
BRANCH   6  17
ATOM     17  CB  CYS A   2      20.830   0.051   5.839  0.00  0.00    +0.098 C 
ATOM     18  SG  CYS A   2      19.881  -0.022   7.380  0.00  0.00    -0.080 S 
ENDBRANCH   6  17
ENDBRANCH   2   6
ENDBRANCH   1   4
BRANCH   1  19
ATOM     19  C   ASN A   3      20.333   0.550   0.385  0.00  0.00    +0.241 C 
ATOM     20  O   ASN A   3      19.238   0.962   0.775  0.00  0.00    -0.273 OA
ATOM     21  N   THR A   4      20.862   0.845  -0.793  0.00  0.00    -0.295 N 
ATOM     22  H   THR A   4      21.809   0.470  -1.001  0.00  0.00    +0.150 HD
BRANCH  21  23
ATOM     23  CA  THR A   4      20.224   1.648  -1.812  0.00  0.00    +0.176 C 
BRANCH  23  24
ATOM     24  C   THR A   4      20.345   0.903  -3.148  0.00  0.00    +0.243 C 
ATOM     25  O   THR A   4      21.385   0.319  -3.443  0.00  0.00    -0.273 OA
ATOM     26  N   LYS A   5      19.271   0.910  -3.932  0.00  0.00    -0.298 N 
ATOM     27  H   LYS A   5      18.410   1.391  -3.602  0.00  0.00    +0.150 HD
BRANCH  26  28
ATOM     28  CA  LYS A   5      19.261   0.263  -5.245  0.00  0.00    +0.137 C 
BRANCH  28  29
ATOM     29  C   LYS A   5      19.084   1.319  -6.321  0.00  0.00    +0.227 C 
ATOM     30  O   LYS A   5      18.088   2.034  -6.335  0.00  0.00    -0.286 OA
ENDBRANCH  28  29
BRANCH  28  31
ATOM     31  CB  LYS A   5      18.133  -0.775  -5.339  0.00  0.00    +0.028 C 
BRANCH  31  32
ATOM     32  CG  LYS A   5      18.230  -1.670  -6.572  0.00  0.00    -0.000 C 
BRANCH  32  33
ATOM     33  CD  LYS A   5      17.271  -2.853  -6.508  0.00  0.00    -0.024 C 
BRANCH  33  34
ATOM     34  CE  LYS A   5      15.851  -2.455  -6.861  0.00  0.00    -0.086 C 
BRANCH  34  35
ATOM     35  NZ  LYS A   5      14.917  -3.625  -6.821  0.00  0.00    +0.380 N 
ATOM     36  HZ1 LYS A   5      14.914  -4.032  -5.864  0.00  0.00    -0.089 HD
ATOM     37  HZ2 LYS A   5      13.957  -3.310  -7.068  0.00  0.00    -0.089 HD
ATOM     38  HZ3 LYS A   5      15.234  -4.343  -7.503  0.00  0.00    -0.089 HD
ENDBRANCH  34  35
ENDBRANCH  33  34
ENDBRANCH  32  33
ENDBRANCH  31  32
ENDBRANCH  28  31
ENDBRANCH  26  28
ENDBRANCH  23  24
BRANCH  23  39
ATOM     39  CB  THR A   4      20.919   3.029  -1.916  0.00  0.00    +0.137 C 
ATOM     40  CG2 THR A   4      20.462   3.817  -3.157  0.00  0.00    +0.034 C 
BRANCH  39  41
ATOM     41  OG1 THR A   4      20.641   3.783  -0.734  0.00  0.00    -0.382 OA
ATOM     42  HG1 THR A   4      20.985   3.295   0.056  0.00  0.00    +0.210 HD
ENDBRANCH  39  41
ENDBRANCH  23  39
ENDBRANCH  21  23
ENDBRANCH   1  19
BRANCH   1  43
ATOM     43  CB  ASN A   3      21.484  -1.706   0.623  0.00  0.00    +0.114 C 
BRANCH  43  44
ATOM     44  CG  ASN A   3      22.663  -1.690  -0.344  0.00  0.00    +0.222 C 
ATOM     45  ND2 ASN A   3      23.130  -2.883  -0.732  0.00  0.00    -0.329 N 
ATOM     46 HD21 ASN A   3      22.691  -3.755  -0.374  0.00  0.00    +0.145 HD
ATOM     47 HD22 ASN A   3      23.932  -2.938  -1.391  0.00  0.00    +0.145 HD
ATOM     48  OD1 ASN A   3      23.147  -0.633  -0.738  0.00  0.00    -0.275 OA
ENDBRANCH  43  44
ENDBRANCH   1  43
TORSDOF 21
REMARK  Name = ../refined-set-2016/3t1l/3t1l_pocket.pdb
REMARK  112 active torsions:
REMARK  status: ('A' for Active; 'I' for Inactive)
REMARK    1  A    between atoms: _1  and  _3
REMARK    2  A    between atoms: _3  and  _4
REMARK    3  A    between atoms: _3  and  _6
REMARK    4  A    between atoms: _6  and  _7
REMARK    5  A    between atoms: _12  and  _14
REMARK    6  A    between atoms: _14  and  _15
REMARK    7  A    between atoms: _14  and  _17
REMARK    8  A    between atoms: _17  and  _18
REMARK    9  A    between atoms: _18  and  _19
REMARK   10  A    between atoms: _19  and  _20
REMARK   11  A    between atoms: _29  and  _31
REMARK   12  A    between atoms: _31  and  _32
REMARK   13  A    between atoms: _31  and  _34
REMARK   14  A    between atoms: _34  and  _35
REMARK   15  A    between atoms: _38  and  _40
REMARK   16  A    between atoms: _40  and  _41
REMARK   17  A    between atoms: _44  and  _46
REMARK   18  A    between atoms: _46  and  _47
REMARK   19  A    between atoms: _46  and  _49
REMARK   20  A    between atoms: _49  and  _50
REMARK   21  A    between atoms: _53  and  _55
REMARK   22  A    between atoms: _55  and  _56
REMARK   23  A    between atoms: _55  and  _58
REMARK   24  A    between atoms: _58  and  _59
REMARK   25  A    between atoms: _59  and  _60
REMARK   26  A    between atoms: _65  and  _67
REMARK   27  A    between atoms: _67  and  _68
REMARK   28  A    between atoms: _67  and  _70
REMARK   29  A    between atoms: _73  and  _75
REMARK   30  A    between atoms: _75  and  _76
REMARK   31  A    between atoms: _75  and  _78
REMARK   32  A    between atoms: _78  and  _79
REMARK   33  A    between atoms: _84  and  _86
REMARK   34  A    between atoms: _86  and  _87
REMARK   35  A    between atoms: _86  and  _89
REMARK   36  A    between atoms: _89  and  _90
REMARK   37  A    between atoms: _96  and  _98
REMARK   38  A    between atoms: _98  and  _99
REMARK   39  A    between atoms: _98  and  _101
REMARK   40  A    between atoms: _101  and  _102
REMARK   41  A    between atoms: _107  and  _109
REMARK   42  A    between atoms: _109  and  _110
REMARK   43  A    between atoms: _109  and  _112
REMARK   44  A    between atoms: _112  and  _113
REMARK   45  A    between atoms: _113  and  _114
REMARK   46  A    between atoms: _114  and  _115
REMARK   47  A    between atoms: _124  and  _126
REMARK   48  A    between atoms: _126  and  _127
REMARK   49  A    between atoms: _126  and  _129
REMARK   50  A    between atoms: _129  and  _130
REMARK   51  A    between atoms: _130  and  _131
REMARK   52  A    between atoms: _134  and  _136
REMARK   53  A    between atoms: _136  and  _137
REMARK   54  A    between atoms: _136  and  _139
REMARK   55  A    between atoms: _142  and  _144
REMARK   56  A    between atoms: _144  and  _145
REMARK   57  A    between atoms: _144  and  _147
REMARK   58  A    between atoms: _149  and  _151
REMARK   59  A    between atoms: _151  and  _152
REMARK   60  A    between atoms: _151  and  _154
REMARK   61  A    between atoms: _154  and  _155
REMARK   62  A    between atoms: _160  and  _162
REMARK   63  A    between atoms: _162  and  _163
REMARK   64  A    between atoms: _162  and  _165
REMARK   65  A    between atoms: _165  and  _166
REMARK   66  A    between atoms: _169  and  _171
REMARK   67  A    between atoms: _171  and  _172
REMARK   68  A    between atoms: _171  and  _174
REMARK   69  A    between atoms: _174  and  _175
REMARK   70  A    between atoms: _175  and  _176
REMARK   71  A    between atoms: _176  and  _177
REMARK   72  A    between atoms: _177  and  _178
REMARK   73  A    between atoms: _182  and  _184
REMARK   74  A    between atoms: _184  and  _185
REMARK   75  A    between atoms: _184  and  _187
REMARK   76  A    between atoms: _187  and  _188
REMARK   77  A    between atoms: _198  and  _200
REMARK   78  A    between atoms: _200  and  _201
REMARK   79  A    between atoms: _203  and  _205
REMARK   80  A    between atoms: _205  and  _206
REMARK   81  A    between atoms: _205  and  _208
REMARK   82  A    between atoms: _208  and  _209
REMARK   83  A    between atoms: _209  and  _210
REMARK   84  A    between atoms: _210  and  _211
REMARK   85  A    between atoms: _220  and  _222
REMARK   86  A    between atoms: _222  and  _223
REMARK   87  A    between atoms: _222  and  _225
REMARK   88  A    between atoms: _225  and  _226
REMARK   89  A    between atoms: _226  and  _227
REMARK   90  A    between atoms: _230  and  _232
REMARK   91  A    between atoms: _232  and  _233
REMARK   92  A    between atoms: _232  and  _235
REMARK   93  A    between atoms: _235  and  _236
REMARK   94  A    between atoms: _236  and  _237
REMARK   95  A    between atoms: _240  and  _242
REMARK   96  A    between atoms: _242  and  _243
REMARK   97  A    between atoms: _242  and  _245
REMARK   98  A    between atoms: _245  and  _246
REMARK   99  A    between atoms: _246  and  _247
REMARK  100  A    between atoms: _247  and  _248
REMARK  101  A    between atoms: _257  and  _259
REMARK  102  A    between atoms: _259  and  _260
REMARK  103  A    between atoms: _259  and  _262
REMARK  104  A    between atoms: _262  and  _263
REMARK  105  A    between atoms: _263  and  _264
REMARK  106  A    between atoms: _264  and  _265
REMARK  107  A    between atoms: _274  and  _276
REMARK  108  A    between atoms: _276  and  _277
REMARK  109  A    between atoms: _276  and  _279
REMARK  110  A    between atoms: _279  and  _280
REMARK  111  A    between atoms: _282  and  _284
REMARK  112  A    between atoms: _284  and  _285
REMARK                            x       y       z     vdW  Elec       q    Type
REMARK                         _______ _______ _______ _____ _____    ______ ____
ROOT
ATOM      1  C   ARG A   3      26.503  -1.174   0.635  0.00  0.00    +0.241 C 
ATOM      2  N   GLU A   4      26.421  -2.364   1.215  0.00  0.00    -0.297 N 
ATOM      3  H   GLU A   4      26.960  -3.161   0.819  0.00  0.00    +0.150 HD
ATOM      4  O   ARG A   3      25.849  -0.206   1.008  0.00  0.00    -0.273 OA
ENDROOT
BRANCH   1   5
ATOM      5  CA  ARG A   3      27.452  -1.056  -0.549  0.00  0.00    +0.149 C 
BRANCH   5   7
ATOM      6  C   GLY A   2      25.849  -1.299  -2.386  0.00  0.00    +0.243 C 
ATOM      7  N   ARG A   3      26.731  -0.559  -1.719  0.00  0.00    -0.297 N 
ATOM      8  H   ARG A   3      26.915   0.412  -2.043  0.00  0.00    +0.150 HD
ATOM      9  O   GLY A   2      25.594  -2.477  -2.110  0.00  0.00    -0.273 OA
BRANCH   6  10
ATOM     10  CA  GLY A   2      25.149  -0.603  -3.531  0.00  0.00    +0.176 C 
BRANCH  10  12
ATOM     11  C   TRP A   1      23.786  -2.162  -4.834  0.00  0.00    +0.239 C 
ATOM     12  N   GLY A   2      23.887  -1.246  -3.875  0.00  0.00    -0.296 N 
ATOM     13  H   GLY A   2      23.031  -0.978  -3.349  0.00  0.00    +0.150 HD
ATOM     14  O   TRP A   1      24.753  -2.538  -5.512  0.00  0.00    -0.274 OA
BRANCH  11  15
ATOM     15  CA  TRP A   1      22.388  -2.745  -5.067  0.00  0.00    +0.149 C 
BRANCH  15  16
ATOM     16  N   TRP A   1      22.173  -3.049  -6.478  0.00  0.00    -0.238 NA
ATOM     17  H   TRP A   1      22.165  -4.043  -6.783  0.00  0.00    +0.142 HD
ENDBRANCH  15  16
BRANCH  15  18
ATOM     18  CB  TRP A   1      22.189  -4.000  -4.209  0.00  0.00    +0.054 C 
BRANCH  18  19
ATOM     19  CG  TRP A   1      20.763  -4.425  -4.096  0.00  0.00    -0.002 A 
ATOM     20  CD2 TRP A   1      19.735  -3.772  -3.345  0.00  0.00    +0.013 A 
ATOM     21  CE3 TRP A   1      19.706  -2.636  -2.528  0.00  0.00    +0.001 A 
ATOM     22  CZ3 TRP A   1      18.507  -2.272  -1.934  0.00  0.00    +0.000 A 
ATOM     23  CH2 TRP A   1      17.342  -3.022  -2.135  0.00  0.00    +0.001 A 
ATOM     24  CZ2 TRP A   1      17.340  -4.143  -2.923  0.00  0.00    +0.017 A 
ATOM     25  CE2 TRP A   1      18.547  -4.507  -3.529  0.00  0.00    +0.056 A 
ATOM     26  NE1 TRP A   1      18.839  -5.561  -4.356  0.00  0.00    -0.352 N 
ATOM     27  HE1 TRP A   1      18.165  -6.287  -4.672  0.00  0.00    +0.166 HD
ATOM     28  CD1 TRP A   1      20.172  -5.501  -4.700  0.00  0.00    +0.068 A 
ENDBRANCH  18  19
ENDBRANCH  15  18
ENDBRANCH  11  15
ENDBRANCH  10  12
ENDBRANCH   6  10
ENDBRANCH   5   7
BRANCH   5  29
ATOM     29  CB  ARG A   3      28.606  -0.108  -0.196  0.00  0.00    +0.033 C 
BRANCH  29  30
ATOM     30  CG  ARG A   3      29.187  -0.284   1.215  0.00  0.00    +0.045 C 
BRANCH  30  31
ATOM     31  CD  ARG A   3      30.337   0.684   1.487  0.00  0.00    +0.174 C 
BRANCH  31  32
ATOM     32  NE  ARG A   3      29.994   2.066   1.147  0.00  0.00    -0.265 N 
ATOM     33  CZ  ARG A   3      29.222   2.872   1.878  0.00  0.00    +0.342 C 
ATOM     34  NH2 ARG A   3      28.681   2.459   3.023  0.00  0.00    -0.292 N 
ATOM     35 HH21 ARG A   3      28.082   3.104   3.577  0.00  0.00    +0.255 HD
ATOM     36 HH22 ARG A   3      28.857   1.492   3.362  0.00  0.00    +0.255 HD
ATOM     37  NH1 ARG A   3      28.984   4.110   1.455  0.00  0.00    -0.292 N 
ATOM     38 HH11 ARG A   3      28.383   4.745   2.018  0.00  0.00    +0.255 HD
ATOM     39 HH12 ARG A   3      29.398   4.443   0.561  0.00  0.00    +0.255 HD
ATOM     40  HE  ARG A   3      30.384   2.451   0.263  0.00  0.00    +0.259 HD
ENDBRANCH  31  32
ENDBRANCH  30  31
ENDBRANCH  29  30
ENDBRANCH   5  29
ENDBRANCH   1   5
BRANCH   2  41
ATOM     41  CA  GLU A   4      25.591  -2.581   2.397  0.00  0.00    +0.149 C 
BRANCH  41  42
ATOM     42  C   GLU A   4      26.155  -1.916   3.642  0.00  0.00    +0.241 C 
ATOM     43  N   GLU A   5      25.258  -1.376   4.455  0.00  0.00    -0.297 N 
ATOM     44  H   GLU A   5      24.293  -1.226   4.098  0.00  0.00    +0.150 HD
ATOM     45  O   GLU A   4      27.372  -1.921   3.873  0.00  0.00    -0.273 OA
BRANCH  43  46
ATOM     46  CA  GLU A   5      25.561  -0.983   5.825  0.00  0.00    +0.149 C 
BRANCH  46  47
ATOM     47  C   GLU A   5      24.851  -1.958   6.754  0.00  0.00    +0.241 C 
ATOM     48  N   ARG A   6      25.597  -2.530   7.688  0.00  0.00    -0.298 N 
ATOM     49  H   ARG A   6      26.596  -2.258   7.780  0.00  0.00    +0.150 HD
ATOM     50  O   GLU A   5      23.656  -2.199   6.621  0.00  0.00    -0.273 OA
BRANCH  48  51
ATOM     51  CA  ARG A   6      25.045  -3.532   8.588  0.00  0.00    +0.137 C 
BRANCH  51  52
ATOM     52  C   ARG A   6      25.074  -3.074  10.036  0.00  0.00    +0.227 C 
ATOM     53  O   ARG A   6      26.003  -2.387  10.469  0.00  0.00    -0.286 OA
ENDBRANCH  51  52
BRANCH  51  54
ATOM     54  CB  ARG A   6      25.800  -4.850   8.427  0.00  0.00    +0.031 C 
BRANCH  54  55
ATOM     55  CG  ARG A   6      25.444  -5.531   7.137  0.00  0.00    +0.045 C 
BRANCH  55  56
ATOM     56  CD  ARG A   6      26.362  -6.651   6.757  0.00  0.00    +0.174 C 
BRANCH  56  57
ATOM     57  NE  ARG A   6      25.775  -7.389   5.639  0.00  0.00    -0.265 N 
ATOM     58  CZ  ARG A   6      25.222  -8.597   5.720  0.00  0.00    +0.342 C 
ATOM     59  NH2 ARG A   6      25.203  -9.264   6.870  0.00  0.00    -0.292 N 
ATOM     60 HH21 ARG A   6      25.624  -8.843   7.723  0.00  0.00    +0.255 HD
ATOM     61 HH22 ARG A   6      24.767 -10.207   6.917  0.00  0.00    +0.255 HD
ATOM     62  NH1 ARG A   6      24.704  -9.153   4.632  0.00  0.00    -0.292 N 
ATOM     63 HH11 ARG A   6      24.270 -10.097   4.687  0.00  0.00    +0.255 HD
ATOM     64 HH12 ARG A   6      24.732  -8.645   3.725  0.00  0.00    +0.255 HD
ATOM     65  HE  ARG A   6      25.791  -6.933   4.705  0.00  0.00    +0.259 HD
ENDBRANCH  56  57
ENDBRANCH  55  56
ENDBRANCH  54  55
ENDBRANCH  51  54
ENDBRANCH  48  51
ENDBRANCH  46  47
BRANCH  46  66
ATOM     66  CB  GLU A   5      25.126   0.455   6.098  0.00  0.00    +0.041 C 
BRANCH  66  67
ATOM     67  CG  GLU A   5      25.875   1.462   5.233  0.00  0.00    +0.116 C 
BRANCH  67  68
ATOM     68  CD  GLU A   5      25.410   2.894   5.406  0.00  0.00    +0.365 C 
ATOM     69  OE2 GLU A   5      25.003   3.289   6.520  0.00  0.00    -0.246 OA
ATOM     70  OE1 GLU A   5      25.477   3.640   4.412  0.00  0.00    -0.246 OA
ENDBRANCH  67  68
ENDBRANCH  66  67
ENDBRANCH  46  66
ENDBRANCH  43  46
ENDBRANCH  41  42
BRANCH  41  71
ATOM     71  CB  GLU A   4      25.437  -4.081   2.685  0.00  0.00    +0.041 C 
BRANCH  71  72
ATOM     72  CG  GLU A   4      24.583  -4.813   1.693  0.00  0.00    +0.116 C 
BRANCH  72  73
ATOM     73  CD  GLU A   4      24.431  -6.298   2.001  0.00  0.00    +0.365 C 
ATOM     74  OE2 GLU A   4      25.122  -6.819   2.909  0.00  0.00    -0.246 OA
ATOM     75  OE1 GLU A   4      23.613  -6.945   1.322  0.00  0.00    -0.246 OA
ENDBRANCH  72  73
ENDBRANCH  71  72
ENDBRANCH  41  71
ENDBRANCH   2  41
TORSDOF 28
REMARK  Name = ../refined-set-2016/3t1l/3t1l_pocket.pdb
REMARK  112 active torsions:
REMARK  status: ('A' for Active; 'I' for Inactive)
REMARK    1  A    between atoms: _1  and  _3
REMARK    2  A    between atoms: _3  and  _4
REMARK    3  A    between atoms: _3  and  _6
REMARK    4  A    between atoms: _6  and  _7
REMARK    5  A    between atoms: _12  and  _14
REMARK    6  A    between atoms: _14  and  _15
REMARK    7  A    between atoms: _14  and  _17
REMARK    8  A    between atoms: _17  and  _18
REMARK    9  A    between atoms: _18  and  _19
REMARK   10  A    between atoms: _19  and  _20
REMARK   11  A    between atoms: _29  and  _31
REMARK   12  A    between atoms: _31  and  _32
REMARK   13  A    between atoms: _31  and  _34
REMARK   14  A    between atoms: _34  and  _35
REMARK   15  A    between atoms: _38  and  _40
REMARK   16  A    between atoms: _40  and  _41
REMARK   17  A    between atoms: _44  and  _46
REMARK   18  A    between atoms: _46  and  _47
REMARK   19  A    between atoms: _46  and  _49
REMARK   20  A    between atoms: _49  and  _50
REMARK   21  A    between atoms: _53  and  _55
REMARK   22  A    between atoms: _55  and  _56
REMARK   23  A    between atoms: _55  and  _58
REMARK   24  A    between atoms: _58  and  _59
REMARK   25  A    between atoms: _59  and  _60
REMARK   26  A    between atoms: _65  and  _67
REMARK   27  A    between atoms: _67  and  _68
REMARK   28  A    between atoms: _67  and  _70
REMARK   29  A    between atoms: _73  and  _75
REMARK   30  A    between atoms: _75  and  _76
REMARK   31  A    between atoms: _75  and  _78
REMARK   32  A    between atoms: _78  and  _79
REMARK   33  A    between atoms: _84  and  _86
REMARK   34  A    between atoms: _86  and  _87
REMARK   35  A    between atoms: _86  and  _89
REMARK   36  A    between atoms: _89  and  _90
REMARK   37  A    between atoms: _96  and  _98
REMARK   38  A    between atoms: _98  and  _99
REMARK   39  A    between atoms: _98  and  _101
REMARK   40  A    between atoms: _101  and  _102
REMARK   41  A    between atoms: _107  and  _109
REMARK   42  A    between atoms: _109  and  _110
REMARK   43  A    between atoms: _109  and  _112
REMARK   44  A    between atoms: _112  and  _113
REMARK   45  A    between atoms: _113  and  _114
REMARK   46  A    between atoms: _114  and  _115
REMARK   47  A    between atoms: _124  and  _126
REMARK   48  A    between atoms: _126  and  _127
REMARK   49  A    between atoms: _126  and  _129
REMARK   50  A    between atoms: _129  and  _130
REMARK   51  A    between atoms: _130  and  _131
REMARK   52  A    between atoms: _134  and  _136
REMARK   53  A    between atoms: _136  and  _137
REMARK   54  A    between atoms: _136  and  _139
REMARK   55  A    between atoms: _142  and  _144
REMARK   56  A    between atoms: _144  and  _145
REMARK   57  A    between atoms: _144  and  _147
REMARK   58  A    between atoms: _149  and  _151
REMARK   59  A    between atoms: _151  and  _152
REMARK   60  A    between atoms: _151  and  _154
REMARK   61  A    between atoms: _154  and  _155
REMARK   62  A    between atoms: _160  and  _162
REMARK   63  A    between atoms: _162  and  _163
REMARK   64  A    between atoms: _162  and  _165
REMARK   65  A    between atoms: _165  and  _166
REMARK   66  A    between atoms: _169  and  _171
REMARK   67  A    between atoms: _171  and  _172
REMARK   68  A    between atoms: _171  and  _174
REMARK   69  A    between atoms: _174  and  _175
REMARK   70  A    between atoms: _175  and  _176
REMARK   71  A    between atoms: _176  and  _177
REMARK   72  A    between atoms: _177  and  _178
REMARK   73  A    between atoms: _182  and  _184
REMARK   74  A    between atoms: _184  and  _185
REMARK   75  A    between atoms: _184  and  _187
REMARK   76  A    between atoms: _187  and  _188
REMARK   77  A    between atoms: _198  and  _200
REMARK   78  A    between atoms: _200  and  _201
REMARK   79  A    between atoms: _203  and  _205
REMARK   80  A    between atoms: _205  and  _206
REMARK   81  A    between atoms: _205  and  _208
REMARK   82  A    between atoms: _208  and  _209
REMARK   83  A    between atoms: _209  and  _210
REMARK   84  A    between atoms: _210  and  _211
REMARK   85  A    between atoms: _220  and  _222
REMARK   86  A    between atoms: _222  and  _223
REMARK   87  A    between atoms: _222  and  _225
REMARK   88  A    between atoms: _225  and  _226
REMARK   89  A    between atoms: _226  and  _227
REMARK   90  A    between atoms: _230  and  _232
REMARK   91  A    between atoms: _232  and  _233
REMARK   92  A    between atoms: _232  and  _235
REMARK   93  A    between atoms: _235  and  _236
REMARK   94  A    between atoms: _236  and  _237
REMARK   95  A    between atoms: _240  and  _242
REMARK   96  A    between atoms: _242  and  _243
REMARK   97  A    between atoms: _242  and  _245
REMARK   98  A    between atoms: _245  and  _246
REMARK   99  A    between atoms: _246  and  _247
REMARK  100  A    between atoms: _247  and  _248
REMARK  101  A    between atoms: _257  and  _259
REMARK  102  A    between atoms: _259  and  _260
REMARK  103  A    between atoms: _259  and  _262
REMARK  104  A    between atoms: _262  and  _263
REMARK  105  A    between atoms: _263  and  _264
REMARK  106  A    between atoms: _264  and  _265
REMARK  107  A    between atoms: _274  and  _276
REMARK  108  A    between atoms: _276  and  _277
REMARK  109  A    between atoms: _276  and  _279
REMARK  110  A    between atoms: _279  and  _280
REMARK  111  A    between atoms: _282  and  _284
REMARK  112  A    between atoms: _284  and  _285
REMARK                            x       y       z     vdW  Elec       q    Type
REMARK                         _______ _______ _______ _____ _____    ______ ____
ROOT
ATOM      1  NE  ARG A   1      24.443   4.300   0.698  0.00  0.00    -0.265 N 
ATOM      2  HE  ARG A   1      24.599   4.843   1.571  0.00  0.00    +0.259 HD
ATOM      3  CZ  ARG A   1      24.747   3.000   0.711  0.00  0.00    +0.342 C 
ATOM      4  NH2 ARG A   1      25.208   2.446   1.819  0.00  0.00    -0.292 N 
ATOM      5 HH21 ARG A   1      25.333   3.022   2.676  0.00  0.00    +0.255 HD
ATOM      6 HH22 ARG A   1      25.446   1.434   1.834  0.00  0.00    +0.255 HD
ATOM      7  NH1 ARG A   1      24.582   2.247  -0.372  0.00  0.00    -0.292 N 
ATOM      8 HH11 ARG A   1      24.824   1.236  -0.344  0.00  0.00    +0.255 HD
ATOM      9 HH12 ARG A   1      24.211   2.669  -1.247  0.00  0.00    +0.255 HD
ENDROOT
BRANCH   1  10
ATOM     10  CD  ARG A   1      23.907   5.011  -0.459  0.00  0.00    +0.174 C 
BRANCH  10  11
ATOM     11  CG  ARG A   1      23.554   6.445  -0.130  0.00  0.00    +0.045 C 
BRANCH  11  12
ATOM     12  CB  ARG A   1      22.711   7.068  -1.217  0.00  0.00    +0.029 C 
BRANCH  12  13
ATOM     13  CA  ARG A   1      22.502   8.576  -1.051  0.00  0.00    +0.133 C 
BRANCH  13  14
ATOM     14  N   ARG A   1      21.798   8.854   0.196  0.00  0.00    -0.239 NA
ATOM     15  H   ARG A   1      21.081   8.176   0.523  0.00  0.00    +0.142 HD
ENDBRANCH  13  14
BRANCH  13  16
ATOM     16  C   ARG A   1      21.738   9.129  -2.247  0.00  0.00    +0.224 C 
ATOM     17  O   ARG A   1      22.331   9.665  -3.184  0.00  0.00    -0.287 OA
ENDBRANCH  13  16
ENDBRANCH  12  13
ENDBRANCH  11  12
ENDBRANCH  10  11
ENDBRANCH   1  10
TORSDOF 6
REMARK  Name = ../refined-set-2016/3t1l/3t1l_pocket.pdb
REMARK  112 active torsions:
REMARK  status: ('A' for Active; 'I' for Inactive)
REMARK    1  A    between atoms: _1  and  _3
REMARK    2  A    between atoms: _3  and  _4
REMARK    3  A    between atoms: _3  and  _6
REMARK    4  A    between atoms: _6  and  _7
REMARK    5  A    between atoms: _12  and  _14
REMARK    6  A    between atoms: _14  and  _15
REMARK    7  A    between atoms: _14  and  _17
REMARK    8  A    between atoms: _17  and  _18
REMARK    9  A    between atoms: _18  and  _19
REMARK   10  A    between atoms: _19  and  _20
REMARK   11  A    between atoms: _29  and  _31
REMARK   12  A    between atoms: _31  and  _32
REMARK   13  A    between atoms: _31  and  _34
REMARK   14  A    between atoms: _34  and  _35
REMARK   15  A    between atoms: _38  and  _40
REMARK   16  A    between atoms: _40  and  _41
REMARK   17  A    between atoms: _44  and  _46
REMARK   18  A    between atoms: _46  and  _47
REMARK   19  A    between atoms: _46  and  _49
REMARK   20  A    between atoms: _49  and  _50
REMARK   21  A    between atoms: _53  and  _55
REMARK   22  A    between atoms: _55  and  _56
REMARK   23  A    between atoms: _55  and  _58
REMARK   24  A    between atoms: _58  and  _59
REMARK   25  A    between atoms: _59  and  _60
REMARK   26  A    between atoms: _65  and  _67
REMARK   27  A    between atoms: _67  and  _68
REMARK   28  A    between atoms: _67  and  _70
REMARK   29  A    between atoms: _73  and  _75
REMARK   30  A    between atoms: _75  and  _76
REMARK   31  A    between atoms: _75  and  _78
REMARK   32  A    between atoms: _78  and  _79
REMARK   33  A    between atoms: _84  and  _86
REMARK   34  A    between atoms: _86  and  _87
REMARK   35  A    between atoms: _86  and  _89
REMARK   36  A    between atoms: _89  and  _90
REMARK   37  A    between atoms: _96  and  _98
REMARK   38  A    between atoms: _98  and  _99
REMARK   39  A    between atoms: _98  and  _101
REMARK   40  A    between atoms: _101  and  _102
REMARK   41  A    between atoms: _107  and  _109
REMARK   42  A    between atoms: _109  and  _110
REMARK   43  A    between atoms: _109  and  _112
REMARK   44  A    between atoms: _112  and  _113
REMARK   45  A    between atoms: _113  and  _114
REMARK   46  A    between atoms: _114  and  _115
REMARK   47  A    between atoms: _124  and  _126
REMARK   48  A    between atoms: _126  and  _127
REMARK   49  A    between atoms: _126  and  _129
REMARK   50  A    between atoms: _129  and  _130
REMARK   51  A    between atoms: _130  and  _131
REMARK   52  A    between atoms: _134  and  _136
REMARK   53  A    between atoms: _136  and  _137
REMARK   54  A    between atoms: _136  and  _139
REMARK   55  A    between atoms: _142  and  _144
REMARK   56  A    between atoms: _144  and  _145
REMARK   57  A    between atoms: _144  and  _147
REMARK   58  A    between atoms: _149  and  _151
REMARK   59  A    between atoms: _151  and  _152
REMARK   60  A    between atoms: _151  and  _154
REMARK   61  A    between atoms: _154  and  _155
REMARK   62  A    between atoms: _160  and  _162
REMARK   63  A    between atoms: _162  and  _163
REMARK   64  A    between atoms: _162  and  _165
REMARK   65  A    between atoms: _165  and  _166
REMARK   66  A    between atoms: _169  and  _171
REMARK   67  A    between atoms: _171  and  _172
REMARK   68  A    between atoms: _171  and  _174
REMARK   69  A    between atoms: _174  and  _175
REMARK   70  A    between atoms: _175  and  _176
REMARK   71  A    between atoms: _176  and  _177
REMARK   72  A    between atoms: _177  and  _178
REMARK   73  A    between atoms: _182  and  _184
REMARK   74  A    between atoms: _184  and  _185
REMARK   75  A    between atoms: _184  and  _187
REMARK   76  A    between atoms: _187  and  _188
REMARK   77  A    between atoms: _198  and  _200
REMARK   78  A    between atoms: _200  and  _201
REMARK   79  A    between atoms: _203  and  _205
REMARK   80  A    between atoms: _205  and  _206
REMARK   81  A    between atoms: _205  and  _208
REMARK   82  A    between atoms: _208  and  _209
REMARK   83  A    between atoms: _209  and  _210
REMARK   84  A    between atoms: _210  and  _211
REMARK   85  A    between atoms: _220  and  _222
REMARK   86  A    between atoms: _222  and  _223
REMARK   87  A    between atoms: _222  and  _225
REMARK   88  A    between atoms: _225  and  _226
REMARK   89  A    between atoms: _226  and  _227
REMARK   90  A    between atoms: _230  and  _232
REMARK   91  A    between atoms: _232  and  _233
REMARK   92  A    between atoms: _232  and  _235
REMARK   93  A    between atoms: _235  and  _236
REMARK   94  A    between atoms: _236  and  _237
REMARK   95  A    between atoms: _240  and  _242
REMARK   96  A    between atoms: _242  and  _243
REMARK   97  A    between atoms: _242  and  _245
REMARK   98  A    between atoms: _245  and  _246
REMARK   99  A    between atoms: _246  and  _247
REMARK  100  A    between atoms: _247  and  _248
REMARK  101  A    between atoms: _257  and  _259
REMARK  102  A    between atoms: _259  and  _260
REMARK  103  A    between atoms: _259  and  _262
REMARK  104  A    between atoms: _262  and  _263
REMARK  105  A    between atoms: _263  and  _264
REMARK  106  A    between atoms: _264  and  _265
REMARK  107  A    between atoms: _274  and  _276
REMARK  108  A    between atoms: _276  and  _277
REMARK  109  A    between atoms: _276  and  _279
REMARK  110  A    between atoms: _279  and  _280
REMARK  111  A    between atoms: _282  and  _284
REMARK  112  A    between atoms: _284  and  _285
REMARK                            x       y       z     vdW  Elec       q    Type
REMARK                         _______ _______ _______ _____ _____    ______ ____
ROOT
ATOM      1  C   SER A   1       7.516  -7.032   4.358  0.00  0.00    +0.241 C 
ATOM      2  O   SER A   1       8.251  -6.539   5.223  0.00  0.00    -0.274 OA
ATOM      3  N   GLY A   2       7.263  -8.331   4.257  0.00  0.00    -0.296 N 
ATOM      4  H   GLY A   2       6.584  -8.657   3.540  0.00  0.00    +0.150 HD
ENDROOT
BRANCH   1   5
ATOM      5  CA  SER A   1       6.820  -6.163   3.330  0.00  0.00    +0.174 C 
BRANCH   5   6
ATOM      6  N   SER A   1       6.979  -4.754   3.642  0.00  0.00    -0.236 NA
ATOM      7  H   SER A   1       7.864  -4.425   4.077  0.00  0.00    +0.142 HD
ENDBRANCH   5   6
BRANCH   5   8
ATOM      8  CB  SER A   1       7.344  -6.469   1.930  0.00  0.00    +0.163 C 
BRANCH   8   9
ATOM      9  OG  SER A   1       8.736  -6.202   1.845  0.00  0.00    -0.380 OA
ATOM     10  H   SER A   1       9.055  -6.407   0.930  0.00  0.00    +0.211 HD
ENDBRANCH   8   9
ENDBRANCH   5   8
ENDBRANCH   1   5
BRANCH   3  11
ATOM     11  CA  GLY A   2       7.903  -9.311   5.114  0.00  0.00    +0.163 C 
BRANCH  11  12
ATOM     12  C   GLY A   2       6.964 -10.005   6.072  0.00  0.00    +0.229 C 
ATOM     13  O   GLY A   2       5.738  -9.970   5.914  0.00  0.00    -0.286 OA
ENDBRANCH  11  12
ENDBRANCH   3  11
TORSDOF 6
REMARK  Name = ../refined-set-2016/3t1l/3t1l_pocket.pdb
REMARK  112 active torsions:
REMARK  status: ('A' for Active; 'I' for Inactive)
REMARK    1  A    between atoms: _1  and  _3
REMARK    2  A    between atoms: _3  and  _4
REMARK    3  A    between atoms: _3  and  _6
REMARK    4  A    between atoms: _6  and  _7
REMARK    5  A    between atoms: _12  and  _14
REMARK    6  A    between atoms: _14  and  _15
REMARK    7  A    between atoms: _14  and  _17
REMARK    8  A    between atoms: _17  and  _18
REMARK    9  A    between atoms: _18  and  _19
REMARK   10  A    between atoms: _19  and  _20
REMARK   11  A    between atoms: _29  and  _31
REMARK   12  A    between atoms: _31  and  _32
REMARK   13  A    between atoms: _31  and  _34
REMARK   14  A    between atoms: _34  and  _35
REMARK   15  A    between atoms: _38  and  _40
REMARK   16  A    between atoms: _40  and  _41
REMARK   17  A    between atoms: _44  and  _46
REMARK   18  A    between atoms: _46  and  _47
REMARK   19  A    between atoms: _46  and  _49
REMARK   20  A    between atoms: _49  and  _50
REMARK   21  A    between atoms: _53  and  _55
REMARK   22  A    between atoms: _55  and  _56
REMARK   23  A    between atoms: _55  and  _58
REMARK   24  A    between atoms: _58  and  _59
REMARK   25  A    between atoms: _59  and  _60
REMARK   26  A    between atoms: _65  and  _67
REMARK   27  A    between atoms: _67  and  _68
REMARK   28  A    between atoms: _67  and  _70
REMARK   29  A    between atoms: _73  and  _75
REMARK   30  A    between atoms: _75  and  _76
REMARK   31  A    between atoms: _75  and  _78
REMARK   32  A    between atoms: _78  and  _79
REMARK   33  A    between atoms: _84  and  _86
REMARK   34  A    between atoms: _86  and  _87
REMARK   35  A    between atoms: _86  and  _89
REMARK   36  A    between atoms: _89  and  _90
REMARK   37  A    between atoms: _96  and  _98
REMARK   38  A    between atoms: _98  and  _99
REMARK   39  A    between atoms: _98  and  _101
REMARK   40  A    between atoms: _101  and  _102
REMARK   41  A    between atoms: _107  and  _109
REMARK   42  A    between atoms: _109  and  _110
REMARK   43  A    between atoms: _109  and  _112
REMARK   44  A    between atoms: _112  and  _113
REMARK   45  A    between atoms: _113  and  _114
REMARK   46  A    between atoms: _114  and  _115
REMARK   47  A    between atoms: _124  and  _126
REMARK   48  A    between atoms: _126  and  _127
REMARK   49  A    between atoms: _126  and  _129
REMARK   50  A    between atoms: _129  and  _130
REMARK   51  A    between atoms: _130  and  _131
REMARK   52  A    between atoms: _134  and  _136
REMARK   53  A    between atoms: _136  and  _137
REMARK   54  A    between atoms: _136  and  _139
REMARK   55  A    between atoms: _142  and  _144
REMARK   56  A    between atoms: _144  and  _145
REMARK   57  A    between atoms: _144  and  _147
REMARK   58  A    between atoms: _149  and  _151
REMARK   59  A    between atoms: _151  and  _152
REMARK   60  A    between atoms: _151  and  _154
REMARK   61  A    between atoms: _154  and  _155
REMARK   62  A    between atoms: _160  and  _162
REMARK   63  A    between atoms: _162  and  _163
REMARK   64  A    between atoms: _162  and  _165
REMARK   65  A    between atoms: _165  and  _166
REMARK   66  A    between atoms: _169  and  _171
REMARK   67  A    between atoms: _171  and  _172
REMARK   68  A    between atoms: _171  and  _174
REMARK   69  A    between atoms: _174  and  _175
REMARK   70  A    between atoms: _175  and  _176
REMARK   71  A    between atoms: _176  and  _177
REMARK   72  A    between atoms: _177  and  _178
REMARK   73  A    between atoms: _182  and  _184
REMARK   74  A    between atoms: _184  and  _185
REMARK   75  A    between atoms: _184  and  _187
REMARK   76  A    between atoms: _187  and  _188
REMARK   77  A    between atoms: _198  and  _200
REMARK   78  A    between atoms: _200  and  _201
REMARK   79  A    between atoms: _203  and  _205
REMARK   80  A    between atoms: _205  and  _206
REMARK   81  A    between atoms: _205  and  _208
REMARK   82  A    between atoms: _208  and  _209
REMARK   83  A    between atoms: _209  and  _210
REMARK   84  A    between atoms: _210  and  _211
REMARK   85  A    between atoms: _220  and  _222
REMARK   86  A    between atoms: _222  and  _223
REMARK   87  A    between atoms: _222  and  _225
REMARK   88  A    between atoms: _225  and  _226
REMARK   89  A    between atoms: _226  and  _227
REMARK   90  A    between atoms: _230  and  _232
REMARK   91  A    between atoms: _232  and  _233
REMARK   92  A    between atoms: _232  and  _235
REMARK   93  A    between atoms: _235  and  _236
REMARK   94  A    between atoms: _236  and  _237
REMARK   95  A    between atoms: _240  and  _242
REMARK   96  A    between atoms: _242  and  _243
REMARK   97  A    between atoms: _242  and  _245
REMARK   98  A    between atoms: _245  and  _246
REMARK   99  A    between atoms: _246  and  _247
REMARK  100  A    between atoms: _247  and  _248
REMARK  101  A    between atoms: _257  and  _259
REMARK  102  A    between atoms: _259  and  _260
REMARK  103  A    between atoms: _259  and  _262
REMARK  104  A    between atoms: _262  and  _263
REMARK  105  A    between atoms: _263  and  _264
REMARK  106  A    between atoms: _264  and  _265
REMARK  107  A    between atoms: _274  and  _276
REMARK  108  A    between atoms: _276  and  _277
REMARK  109  A    between atoms: _276  and  _279
REMARK  110  A    between atoms: _279  and  _280
REMARK  111  A    between atoms: _282  and  _284
REMARK  112  A    between atoms: _284  and  _285
REMARK                            x       y       z     vdW  Elec       q    Type
REMARK                         _______ _______ _______ _____ _____    ______ ____
ROOT
ATOM      1  O   HOH     1       9.152  -3.558   1.128  0.00  0.00    +0.000 OA
ENDROOT
TORSDOF 0
REMARK  Name = ../refined-set-2016/3t1l/3t1l_pocket.pdb
REMARK  112 active torsions:
REMARK  status: ('A' for Active; 'I' for Inactive)
REMARK    1  A    between atoms: _1  and  _3
REMARK    2  A    between atoms: _3  and  _4
REMARK    3  A    between atoms: _3  and  _6
REMARK    4  A    between atoms: _6  and  _7
REMARK    5  A    between atoms: _12  and  _14
REMARK    6  A    between atoms: _14  and  _15
REMARK    7  A    between atoms: _14  and  _17
REMARK    8  A    between atoms: _17  and  _18
REMARK    9  A    between atoms: _18  and  _19
REMARK   10  A    between atoms: _19  and  _20
REMARK   11  A    between atoms: _29  and  _31
REMARK   12  A    between atoms: _31  and  _32
REMARK   13  A    between atoms: _31  and  _34
REMARK   14  A    between atoms: _34  and  _35
REMARK   15  A    between atoms: _38  and  _40
REMARK   16  A    between atoms: _40  and  _41
REMARK   17  A    between atoms: _44  and  _46
REMARK   18  A    between atoms: _46  and  _47
REMARK   19  A    between atoms: _46  and  _49
REMARK   20  A    between atoms: _49  and  _50
REMARK   21  A    between atoms: _53  and  _55
REMARK   22  A    between atoms: _55  and  _56
REMARK   23  A    between atoms: _55  and  _58
REMARK   24  A    between atoms: _58  and  _59
REMARK   25  A    between atoms: _59  and  _60
REMARK   26  A    between atoms: _65  and  _67
REMARK   27  A    between atoms: _67  and  _68
REMARK   28  A    between atoms: _67  and  _70
REMARK   29  A    between atoms: _73  and  _75
REMARK   30  A    between atoms: _75  and  _76
REMARK   31  A    between atoms: _75  and  _78
REMARK   32  A    between atoms: _78  and  _79
REMARK   33  A    between atoms: _84  and  _86
REMARK   34  A    between atoms: _86  and  _87
REMARK   35  A    between atoms: _86  and  _89
REMARK   36  A    between atoms: _89  and  _90
REMARK   37  A    between atoms: _96  and  _98
REMARK   38  A    between atoms: _98  and  _99
REMARK   39  A    between atoms: _98  and  _101
REMARK   40  A    between atoms: _101  and  _102
REMARK   41  A    between atoms: _107  and  _109
REMARK   42  A    between atoms: _109  and  _110
REMARK   43  A    between atoms: _109  and  _112
REMARK   44  A    between atoms: _112  and  _113
REMARK   45  A    between atoms: _113  and  _114
REMARK   46  A    between atoms: _114  and  _115
REMARK   47  A    between atoms: _124  and  _126
REMARK   48  A    between atoms: _126  and  _127
REMARK   49  A    between atoms: _126  and  _129
REMARK   50  A    between atoms: _129  and  _130
REMARK   51  A    between atoms: _130  and  _131
REMARK   52  A    between atoms: _134  and  _136
REMARK   53  A    between atoms: _136  and  _137
REMARK   54  A    between atoms: _136  and  _139
REMARK   55  A    between atoms: _142  and  _144
REMARK   56  A    between atoms: _144  and  _145
REMARK   57  A    between atoms: _144  and  _147
REMARK   58  A    between atoms: _149  and  _151
REMARK   59  A    between atoms: _151  and  _152
REMARK   60  A    between atoms: _151  and  _154
REMARK   61  A    between atoms: _154  and  _155
REMARK   62  A    between atoms: _160  and  _162
REMARK   63  A    between atoms: _162  and  _163
REMARK   64  A    between atoms: _162  and  _165
REMARK   65  A    between atoms: _165  and  _166
REMARK   66  A    between atoms: _169  and  _171
REMARK   67  A    between atoms: _171  and  _172
REMARK   68  A    between atoms: _171  and  _174
REMARK   69  A    between atoms: _174  and  _175
REMARK   70  A    between atoms: _175  and  _176
REMARK   71  A    between atoms: _176  and  _177
REMARK   72  A    between atoms: _177  and  _178
REMARK   73  A    between atoms: _182  and  _184
REMARK   74  A    between atoms: _184  and  _185
REMARK   75  A    between atoms: _184  and  _187
REMARK   76  A    between atoms: _187  and  _188
REMARK   77  A    between atoms: _198  and  _200
REMARK   78  A    between atoms: _200  and  _201
REMARK   79  A    between atoms: _203  and  _205
REMARK   80  A    between atoms: _205  and  _206
REMARK   81  A    between atoms: _205  and  _208
REMARK   82  A    between atoms: _208  and  _209
REMARK   83  A    between atoms: _209  and  _210
REMARK   84  A    between atoms: _210  and  _211
REMARK   85  A    between atoms: _220  and  _222
REMARK   86  A    between atoms: _222  and  _223
REMARK   87  A    between atoms: _222  and  _225
REMARK   88  A    between atoms: _225  and  _226
REMARK   89  A    between atoms: _226  and  _227
REMARK   90  A    between atoms: _230  and  _232
REMARK   91  A    between atoms: _232  and  _233
REMARK   92  A    between atoms: _232  and  _235
REMARK   93  A    between atoms: _235  and  _236
REMARK   94  A    between atoms: _236  and  _237
REMARK   95  A    between atoms: _240  and  _242
REMARK   96  A    between atoms: _242  and  _243
REMARK   97  A    between atoms: _242  and  _245
REMARK   98  A    between atoms: _245  and  _246
REMARK   99  A    between atoms: _246  and  _247
REMARK  100  A    between atoms: _247  and  _248
REMARK  101  A    between atoms: _257  and  _259
REMARK  102  A    between atoms: _259  and  _260
REMARK  103  A    between atoms: _259  and  _262
REMARK  104  A    between atoms: _262  and  _263
REMARK  105  A    between atoms: _263  and  _264
REMARK  106  A    between atoms: _264  and  _265
REMARK  107  A    between atoms: _274  and  _276
REMARK  108  A    between atoms: _276  and  _277
REMARK  109  A    between atoms: _276  and  _279
REMARK  110  A    between atoms: _279  and  _280
REMARK  111  A    between atoms: _282  and  _284
REMARK  112  A    between atoms: _284  and  _285
REMARK                            x       y       z     vdW  Elec       q    Type
REMARK                         _______ _______ _______ _____ _____    ______ ____
ROOT
ATOM      1  O   HOH     1      16.854 -14.000   7.468  0.00  0.00    +0.000 OA
ENDROOT
TORSDOF 0
REMARK  Name = ../refined-set-2016/3t1l/3t1l_pocket.pdb
REMARK  112 active torsions:
REMARK  status: ('A' for Active; 'I' for Inactive)
REMARK    1  A    between atoms: _1  and  _3
REMARK    2  A    between atoms: _3  and  _4
REMARK    3  A    between atoms: _3  and  _6
REMARK    4  A    between atoms: _6  and  _7
REMARK    5  A    between atoms: _12  and  _14
REMARK    6  A    between atoms: _14  and  _15
REMARK    7  A    between atoms: _14  and  _17
REMARK    8  A    between atoms: _17  and  _18
REMARK    9  A    between atoms: _18  and  _19
REMARK   10  A    between atoms: _19  and  _20
REMARK   11  A    between atoms: _29  and  _31
REMARK   12  A    between atoms: _31  and  _32
REMARK   13  A    between atoms: _31  and  _34
REMARK   14  A    between atoms: _34  and  _35
REMARK   15  A    between atoms: _38  and  _40
REMARK   16  A    between atoms: _40  and  _41
REMARK   17  A    between atoms: _44  and  _46
REMARK   18  A    between atoms: _46  and  _47
REMARK   19  A    between atoms: _46  and  _49
REMARK   20  A    between atoms: _49  and  _50
REMARK   21  A    between atoms: _53  and  _55
REMARK   22  A    between atoms: _55  and  _56
REMARK   23  A    between atoms: _55  and  _58
REMARK   24  A    between atoms: _58  and  _59
REMARK   25  A    between atoms: _59  and  _60
REMARK   26  A    between atoms: _65  and  _67
REMARK   27  A    between atoms: _67  and  _68
REMARK   28  A    between atoms: _67  and  _70
REMARK   29  A    between atoms: _73  and  _75
REMARK   30  A    between atoms: _75  and  _76
REMARK   31  A    between atoms: _75  and  _78
REMARK   32  A    between atoms: _78  and  _79
REMARK   33  A    between atoms: _84  and  _86
REMARK   34  A    between atoms: _86  and  _87
REMARK   35  A    between atoms: _86  and  _89
REMARK   36  A    between atoms: _89  and  _90
REMARK   37  A    between atoms: _96  and  _98
REMARK   38  A    between atoms: _98  and  _99
REMARK   39  A    between atoms: _98  and  _101
REMARK   40  A    between atoms: _101  and  _102
REMARK   41  A    between atoms: _107  and  _109
REMARK   42  A    between atoms: _109  and  _110
REMARK   43  A    between atoms: _109  and  _112
REMARK   44  A    between atoms: _112  and  _113
REMARK   45  A    between atoms: _113  and  _114
REMARK   46  A    between atoms: _114  and  _115
REMARK   47  A    between atoms: _124  and  _126
REMARK   48  A    between atoms: _126  and  _127
REMARK   49  A    between atoms: _126  and  _129
REMARK   50  A    between atoms: _129  and  _130
REMARK   51  A    between atoms: _130  and  _131
REMARK   52  A    between atoms: _134  and  _136
REMARK   53  A    between atoms: _136  and  _137
REMARK   54  A    between atoms: _136  and  _139
REMARK   55  A    between atoms: _142  and  _144
REMARK   56  A    between atoms: _144  and  _145
REMARK   57  A    between atoms: _144  and  _147
REMARK   58  A    between atoms: _149  and  _151
REMARK   59  A    between atoms: _151  and  _152
REMARK   60  A    between atoms: _151  and  _154
REMARK   61  A    between atoms: _154  and  _155
REMARK   62  A    between atoms: _160  and  _162
REMARK   63  A    between atoms: _162  and  _163
REMARK   64  A    between atoms: _162  and  _165
REMARK   65  A    between atoms: _165  and  _166
REMARK   66  A    between atoms: _169  and  _171
REMARK   67  A    between atoms: _171  and  _172
REMARK   68  A    between atoms: _171  and  _174
REMARK   69  A    between atoms: _174  and  _175
REMARK   70  A    between atoms: _175  and  _176
REMARK   71  A    between atoms: _176  and  _177
REMARK   72  A    between atoms: _177  and  _178
REMARK   73  A    between atoms: _182  and  _184
REMARK   74  A    between atoms: _184  and  _185
REMARK   75  A    between atoms: _184  and  _187
REMARK   76  A    between atoms: _187  and  _188
REMARK   77  A    between atoms: _198  and  _200
REMARK   78  A    between atoms: _200  and  _201
REMARK   79  A    between atoms: _203  and  _205
REMARK   80  A    between atoms: _205  and  _206
REMARK   81  A    between atoms: _205  and  _208
REMARK   82  A    between atoms: _208  and  _209
REMARK   83  A    between atoms: _209  and  _210
REMARK   84  A    between atoms: _210  and  _211
REMARK   85  A    between atoms: _220  and  _222
REMARK   86  A    between atoms: _222  and  _223
REMARK   87  A    between atoms: _222  and  _225
REMARK   88  A    between atoms: _225  and  _226
REMARK   89  A    between atoms: _226  and  _227
REMARK   90  A    between atoms: _230  and  _232
REMARK   91  A    between atoms: _232  and  _233
REMARK   92  A    between atoms: _232  and  _235
REMARK   93  A    between atoms: _235  and  _236
REMARK   94  A    between atoms: _236  and  _237
REMARK   95  A    between atoms: _240  and  _242
REMARK   96  A    between atoms: _242  and  _243
REMARK   97  A    between atoms: _242  and  _245
REMARK   98  A    between atoms: _245  and  _246
REMARK   99  A    between atoms: _246  and  _247
REMARK  100  A    between atoms: _247  and  _248
REMARK  101  A    between atoms: _257  and  _259
REMARK  102  A    between atoms: _259  and  _260
REMARK  103  A    between atoms: _259  and  _262
REMARK  104  A    between atoms: _262  and  _263
REMARK  105  A    between atoms: _263  and  _264
REMARK  106  A    between atoms: _264  and  _265
REMARK  107  A    between atoms: _274  and  _276
REMARK  108  A    between atoms: _276  and  _277
REMARK  109  A    between atoms: _276  and  _279
REMARK  110  A    between atoms: _279  and  _280
REMARK  111  A    between atoms: _282  and  _284
REMARK  112  A    between atoms: _284  and  _285
REMARK                            x       y       z     vdW  Elec       q    Type
REMARK                         _______ _______ _______ _____ _____    ______ ____
ROOT
ATOM      1  O   HOH     1       5.538  -9.442   2.060  0.00  0.00    +0.000 OA
ENDROOT
TORSDOF 0
REMARK  Name = ../refined-set-2016/3t1l/3t1l_pocket.pdb
REMARK  112 active torsions:
REMARK  status: ('A' for Active; 'I' for Inactive)
REMARK    1  A    between atoms: _1  and  _3
REMARK    2  A    between atoms: _3  and  _4
REMARK    3  A    between atoms: _3  and  _6
REMARK    4  A    between atoms: _6  and  _7
REMARK    5  A    between atoms: _12  and  _14
REMARK    6  A    between atoms: _14  and  _15
REMARK    7  A    between atoms: _14  and  _17
REMARK    8  A    between atoms: _17  and  _18
REMARK    9  A    between atoms: _18  and  _19
REMARK   10  A    between atoms: _19  and  _20
REMARK   11  A    between atoms: _29  and  _31
REMARK   12  A    between atoms: _31  and  _32
REMARK   13  A    between atoms: _31  and  _34
REMARK   14  A    between atoms: _34  and  _35
REMARK   15  A    between atoms: _38  and  _40
REMARK   16  A    between atoms: _40  and  _41
REMARK   17  A    between atoms: _44  and  _46
REMARK   18  A    between atoms: _46  and  _47
REMARK   19  A    between atoms: _46  and  _49
REMARK   20  A    between atoms: _49  and  _50
REMARK   21  A    between atoms: _53  and  _55
REMARK   22  A    between atoms: _55  and  _56
REMARK   23  A    between atoms: _55  and  _58
REMARK   24  A    between atoms: _58  and  _59
REMARK   25  A    between atoms: _59  and  _60
REMARK   26  A    between atoms: _65  and  _67
REMARK   27  A    between atoms: _67  and  _68
REMARK   28  A    between atoms: _67  and  _70
REMARK   29  A    between atoms: _73  and  _75
REMARK   30  A    between atoms: _75  and  _76
REMARK   31  A    between atoms: _75  and  _78
REMARK   32  A    between atoms: _78  and  _79
REMARK   33  A    between atoms: _84  and  _86
REMARK   34  A    between atoms: _86  and  _87
REMARK   35  A    between atoms: _86  and  _89
REMARK   36  A    between atoms: _89  and  _90
REMARK   37  A    between atoms: _96  and  _98
REMARK   38  A    between atoms: _98  and  _99
REMARK   39  A    between atoms: _98  and  _101
REMARK   40  A    between atoms: _101  and  _102
REMARK   41  A    between atoms: _107  and  _109
REMARK   42  A    between atoms: _109  and  _110
REMARK   43  A    between atoms: _109  and  _112
REMARK   44  A    between atoms: _112  and  _113
REMARK   45  A    between atoms: _113  and  _114
REMARK   46  A    between atoms: _114  and  _115
REMARK   47  A    between atoms: _124  and  _126
REMARK   48  A    between atoms: _126  and  _127
REMARK   49  A    between atoms: _126  and  _129
REMARK   50  A    between atoms: _129  and  _130
REMARK   51  A    between atoms: _130  and  _131
REMARK   52  A    between atoms: _134  and  _136
REMARK   53  A    between atoms: _136  and  _137
REMARK   54  A    between atoms: _136  and  _139
REMARK   55  A    between atoms: _142  and  _144
REMARK   56  A    between atoms: _144  and  _145
REMARK   57  A    between atoms: _144  and  _147
REMARK   58  A    between atoms: _149  and  _151
REMARK   59  A    between atoms: _151  and  _152
REMARK   60  A    between atoms: _151  and  _154
REMARK   61  A    between atoms: _154  and  _155
REMARK   62  A    between atoms: _160  and  _162
REMARK   63  A    between atoms: _162  and  _163
REMARK   64  A    between atoms: _162  and  _165
REMARK   65  A    between atoms: _165  and  _166
REMARK   66  A    between atoms: _169  and  _171
REMARK   67  A    between atoms: _171  and  _172
REMARK   68  A    between atoms: _171  and  _174
REMARK   69  A    between atoms: _174  and  _175
REMARK   70  A    between atoms: _175  and  _176
REMARK   71  A    between atoms: _176  and  _177
REMARK   72  A    between atoms: _177  and  _178
REMARK   73  A    between atoms: _182  and  _184
REMARK   74  A    between atoms: _184  and  _185
REMARK   75  A    between atoms: _184  and  _187
REMARK   76  A    between atoms: _187  and  _188
REMARK   77  A    between atoms: _198  and  _200
REMARK   78  A    between atoms: _200  and  _201
REMARK   79  A    between atoms: _203  and  _205
REMARK   80  A    between atoms: _205  and  _206
REMARK   81  A    between atoms: _205  and  _208
REMARK   82  A    between atoms: _208  and  _209
REMARK   83  A    between atoms: _209  and  _210
REMARK   84  A    between atoms: _210  and  _211
REMARK   85  A    between atoms: _220  and  _222
REMARK   86  A    between atoms: _222  and  _223
REMARK   87  A    between atoms: _222  and  _225
REMARK   88  A    between atoms: _225  and  _226
REMARK   89  A    between atoms: _226  and  _227
REMARK   90  A    between atoms: _230  and  _232
REMARK   91  A    between atoms: _232  and  _233
REMARK   92  A    between atoms: _232  and  _235
REMARK   93  A    between atoms: _235  and  _236
REMARK   94  A    between atoms: _236  and  _237
REMARK   95  A    between atoms: _240  and  _242
REMARK   96  A    between atoms: _242  and  _243
REMARK   97  A    between atoms: _242  and  _245
REMARK   98  A    between atoms: _245  and  _246
REMARK   99  A    between atoms: _246  and  _247
REMARK  100  A    between atoms: _247  and  _248
REMARK  101  A    between atoms: _257  and  _259
REMARK  102  A    between atoms: _259  and  _260
REMARK  103  A    between atoms: _259  and  _262
REMARK  104  A    between atoms: _262  and  _263
REMARK  105  A    between atoms: _263  and  _264
REMARK  106  A    between atoms: _264  and  _265
REMARK  107  A    between atoms: _274  and  _276
REMARK  108  A    between atoms: _276  and  _277
REMARK  109  A    between atoms: _276  and  _279
REMARK  110  A    between atoms: _279  and  _280
REMARK  111  A    between atoms: _282  and  _284
REMARK  112  A    between atoms: _284  and  _285
REMARK                            x       y       z     vdW  Elec       q    Type
REMARK                         _______ _______ _______ _____ _____    ______ ____
ROOT
ATOM      1  O   HOH     1       8.947 -11.108   2.219  0.00  0.00    +0.000 OA
ENDROOT
TORSDOF 0
REMARK  Name = ../refined-set-2016/3t1l/3t1l_pocket.pdb
REMARK  112 active torsions:
REMARK  status: ('A' for Active; 'I' for Inactive)
REMARK    1  A    between atoms: _1  and  _3
REMARK    2  A    between atoms: _3  and  _4
REMARK    3  A    between atoms: _3  and  _6
REMARK    4  A    between atoms: _6  and  _7
REMARK    5  A    between atoms: _12  and  _14
REMARK    6  A    between atoms: _14  and  _15
REMARK    7  A    between atoms: _14  and  _17
REMARK    8  A    between atoms: _17  and  _18
REMARK    9  A    between atoms: _18  and  _19
REMARK   10  A    between atoms: _19  and  _20
REMARK   11  A    between atoms: _29  and  _31
REMARK   12  A    between atoms: _31  and  _32
REMARK   13  A    between atoms: _31  and  _34
REMARK   14  A    between atoms: _34  and  _35
REMARK   15  A    between atoms: _38  and  _40
REMARK   16  A    between atoms: _40  and  _41
REMARK   17  A    between atoms: _44  and  _46
REMARK   18  A    between atoms: _46  and  _47
REMARK   19  A    between atoms: _46  and  _49
REMARK   20  A    between atoms: _49  and  _50
REMARK   21  A    between atoms: _53  and  _55
REMARK   22  A    between atoms: _55  and  _56
REMARK   23  A    between atoms: _55  and  _58
REMARK   24  A    between atoms: _58  and  _59
REMARK   25  A    between atoms: _59  and  _60
REMARK   26  A    between atoms: _65  and  _67
REMARK   27  A    between atoms: _67  and  _68
REMARK   28  A    between atoms: _67  and  _70
REMARK   29  A    between atoms: _73  and  _75
REMARK   30  A    between atoms: _75  and  _76
REMARK   31  A    between atoms: _75  and  _78
REMARK   32  A    between atoms: _78  and  _79
REMARK   33  A    between atoms: _84  and  _86
REMARK   34  A    between atoms: _86  and  _87
REMARK   35  A    between atoms: _86  and  _89
REMARK   36  A    between atoms: _89  and  _90
REMARK   37  A    between atoms: _96  and  _98
REMARK   38  A    between atoms: _98  and  _99
REMARK   39  A    between atoms: _98  and  _101
REMARK   40  A    between atoms: _101  and  _102
REMARK   41  A    between atoms: _107  and  _109
REMARK   42  A    between atoms: _109  and  _110
REMARK   43  A    between atoms: _109  and  _112
REMARK   44  A    between atoms: _112  and  _113
REMARK   45  A    between atoms: _113  and  _114
REMARK   46  A    between atoms: _114  and  _115
REMARK   47  A    between atoms: _124  and  _126
REMARK   48  A    between atoms: _126  and  _127
REMARK   49  A    between atoms: _126  and  _129
REMARK   50  A    between atoms: _129  and  _130
REMARK   51  A    between atoms: _130  and  _131
REMARK   52  A    between atoms: _134  and  _136
REMARK   53  A    between atoms: _136  and  _137
REMARK   54  A    between atoms: _136  and  _139
REMARK   55  A    between atoms: _142  and  _144
REMARK   56  A    between atoms: _144  and  _145
REMARK   57  A    between atoms: _144  and  _147
REMARK   58  A    between atoms: _149  and  _151
REMARK   59  A    between atoms: _151  and  _152
REMARK   60  A    between atoms: _151  and  _154
REMARK   61  A    between atoms: _154  and  _155
REMARK   62  A    between atoms: _160  and  _162
REMARK   63  A    between atoms: _162  and  _163
REMARK   64  A    between atoms: _162  and  _165
REMARK   65  A    between atoms: _165  and  _166
REMARK   66  A    between atoms: _169  and  _171
REMARK   67  A    between atoms: _171  and  _172
REMARK   68  A    between atoms: _171  and  _174
REMARK   69  A    between atoms: _174  and  _175
REMARK   70  A    between atoms: _175  and  _176
REMARK   71  A    between atoms: _176  and  _177
REMARK   72  A    between atoms: _177  and  _178
REMARK   73  A    between atoms: _182  and  _184
REMARK   74  A    between atoms: _184  and  _185
REMARK   75  A    between atoms: _184  and  _187
REMARK   76  A    between atoms: _187  and  _188
REMARK   77  A    between atoms: _198  and  _200
REMARK   78  A    between atoms: _200  and  _201
REMARK   79  A    between atoms: _203  and  _205
REMARK   80  A    between atoms: _205  and  _206
REMARK   81  A    between atoms: _205  and  _208
REMARK   82  A    between atoms: _208  and  _209
REMARK   83  A    between atoms: _209  and  _210
REMARK   84  A    between atoms: _210  and  _211
REMARK   85  A    between atoms: _220  and  _222
REMARK   86  A    between atoms: _222  and  _223
REMARK   87  A    between atoms: _222  and  _225
REMARK   88  A    between atoms: _225  and  _226
REMARK   89  A    between atoms: _226  and  _227
REMARK   90  A    between atoms: _230  and  _232
REMARK   91  A    between atoms: _232  and  _233
REMARK   92  A    between atoms: _232  and  _235
REMARK   93  A    between atoms: _235  and  _236
REMARK   94  A    between atoms: _236  and  _237
REMARK   95  A    between atoms: _240  and  _242
REMARK   96  A    between atoms: _242  and  _243
REMARK   97  A    between atoms: _242  and  _245
REMARK   98  A    between atoms: _245  and  _246
REMARK   99  A    between atoms: _246  and  _247
REMARK  100  A    between atoms: _247  and  _248
REMARK  101  A    between atoms: _257  and  _259
REMARK  102  A    between atoms: _259  and  _260
REMARK  103  A    between atoms: _259  and  _262
REMARK  104  A    between atoms: _262  and  _263
REMARK  105  A    between atoms: _263  and  _264
REMARK  106  A    between atoms: _264  and  _265
REMARK  107  A    between atoms: _274  and  _276
REMARK  108  A    between atoms: _276  and  _277
REMARK  109  A    between atoms: _276  and  _279
REMARK  110  A    between atoms: _279  and  _280
REMARK  111  A    between atoms: _282  and  _284
REMARK  112  A    between atoms: _284  and  _285
REMARK                            x       y       z     vdW  Elec       q    Type
REMARK                         _______ _______ _______ _____ _____    ______ ____
ROOT
ATOM      1  O   HOH     1       7.412  -3.574  -1.056  0.00  0.00    +0.000 OA
ENDROOT
TORSDOF 0
REMARK  Name = ../refined-set-2016/3t1l/3t1l_pocket.pdb
REMARK  112 active torsions:
REMARK  status: ('A' for Active; 'I' for Inactive)
REMARK    1  A    between atoms: _1  and  _3
REMARK    2  A    between atoms: _3  and  _4
REMARK    3  A    between atoms: _3  and  _6
REMARK    4  A    between atoms: _6  and  _7
REMARK    5  A    between atoms: _12  and  _14
REMARK    6  A    between atoms: _14  and  _15
REMARK    7  A    between atoms: _14  and  _17
REMARK    8  A    between atoms: _17  and  _18
REMARK    9  A    between atoms: _18  and  _19
REMARK   10  A    between atoms: _19  and  _20
REMARK   11  A    between atoms: _29  and  _31
REMARK   12  A    between atoms: _31  and  _32
REMARK   13  A    between atoms: _31  and  _34
REMARK   14  A    between atoms: _34  and  _35
REMARK   15  A    between atoms: _38  and  _40
REMARK   16  A    between atoms: _40  and  _41
REMARK   17  A    between atoms: _44  and  _46
REMARK   18  A    between atoms: _46  and  _47
REMARK   19  A    between atoms: _46  and  _49
REMARK   20  A    between atoms: _49  and  _50
REMARK   21  A    between atoms: _53  and  _55
REMARK   22  A    between atoms: _55  and  _56
REMARK   23  A    between atoms: _55  and  _58
REMARK   24  A    between atoms: _58  and  _59
REMARK   25  A    between atoms: _59  and  _60
REMARK   26  A    between atoms: _65  and  _67
REMARK   27  A    between atoms: _67  and  _68
REMARK   28  A    between atoms: _67  and  _70
REMARK   29  A    between atoms: _73  and  _75
REMARK   30  A    between atoms: _75  and  _76
REMARK   31  A    between atoms: _75  and  _78
REMARK   32  A    between atoms: _78  and  _79
REMARK   33  A    between atoms: _84  and  _86
REMARK   34  A    between atoms: _86  and  _87
REMARK   35  A    between atoms: _86  and  _89
REMARK   36  A    between atoms: _89  and  _90
REMARK   37  A    between atoms: _96  and  _98
REMARK   38  A    between atoms: _98  and  _99
REMARK   39  A    between atoms: _98  and  _101
REMARK   40  A    between atoms: _101  and  _102
REMARK   41  A    between atoms: _107  and  _109
REMARK   42  A    between atoms: _109  and  _110
REMARK   43  A    between atoms: _109  and  _112
REMARK   44  A    between atoms: _112  and  _113
REMARK   45  A    between atoms: _113  and  _114
REMARK   46  A    between atoms: _114  and  _115
REMARK   47  A    between atoms: _124  and  _126
REMARK   48  A    between atoms: _126  and  _127
REMARK   49  A    between atoms: _126  and  _129
REMARK   50  A    between atoms: _129  and  _130
REMARK   51  A    between atoms: _130  and  _131
REMARK   52  A    between atoms: _134  and  _136
REMARK   53  A    between atoms: _136  and  _137
REMARK   54  A    between atoms: _136  and  _139
REMARK   55  A    between atoms: _142  and  _144
REMARK   56  A    between atoms: _144  and  _145
REMARK   57  A    between atoms: _144  and  _147
REMARK   58  A    between atoms: _149  and  _151
REMARK   59  A    between atoms: _151  and  _152
REMARK   60  A    between atoms: _151  and  _154
REMARK   61  A    between atoms: _154  and  _155
REMARK   62  A    between atoms: _160  and  _162
REMARK   63  A    between atoms: _162  and  _163
REMARK   64  A    between atoms: _162  and  _165
REMARK   65  A    between atoms: _165  and  _166
REMARK   66  A    between atoms: _169  and  _171
REMARK   67  A    between atoms: _171  and  _172
REMARK   68  A    between atoms: _171  and  _174
REMARK   69  A    between atoms: _174  and  _175
REMARK   70  A    between atoms: _175  and  _176
REMARK   71  A    between atoms: _176  and  _177
REMARK   72  A    between atoms: _177  and  _178
REMARK   73  A    between atoms: _182  and  _184
REMARK   74  A    between atoms: _184  and  _185
REMARK   75  A    between atoms: _184  and  _187
REMARK   76  A    between atoms: _187  and  _188
REMARK   77  A    between atoms: _198  and  _200
REMARK   78  A    between atoms: _200  and  _201
REMARK   79  A    between atoms: _203  and  _205
REMARK   80  A    between atoms: _205  and  _206
REMARK   81  A    between atoms: _205  and  _208
REMARK   82  A    between atoms: _208  and  _209
REMARK   83  A    between atoms: _209  and  _210
REMARK   84  A    between atoms: _210  and  _211
REMARK   85  A    between atoms: _220  and  _222
REMARK   86  A    between atoms: _222  and  _223
REMARK   87  A    between atoms: _222  and  _225
REMARK   88  A    between atoms: _225  and  _226
REMARK   89  A    between atoms: _226  and  _227
REMARK   90  A    between atoms: _230  and  _232
REMARK   91  A    between atoms: _232  and  _233
REMARK   92  A    between atoms: _232  and  _235
REMARK   93  A    between atoms: _235  and  _236
REMARK   94  A    between atoms: _236  and  _237
REMARK   95  A    between atoms: _240  and  _242
REMARK   96  A    between atoms: _242  and  _243
REMARK   97  A    between atoms: _242  and  _245
REMARK   98  A    between atoms: _245  and  _246
REMARK   99  A    between atoms: _246  and  _247
REMARK  100  A    between atoms: _247  and  _248
REMARK  101  A    between atoms: _257  and  _259
REMARK  102  A    between atoms: _259  and  _260
REMARK  103  A    between atoms: _259  and  _262
REMARK  104  A    between atoms: _262  and  _263
REMARK  105  A    between atoms: _263  and  _264
REMARK  106  A    between atoms: _264  and  _265
REMARK  107  A    between atoms: _274  and  _276
REMARK  108  A    between atoms: _276  and  _277
REMARK  109  A    between atoms: _276  and  _279
REMARK  110  A    between atoms: _279  and  _280
REMARK  111  A    between atoms: _282  and  _284
REMARK  112  A    between atoms: _284  and  _285
REMARK                            x       y       z     vdW  Elec       q    Type
REMARK                         _______ _______ _______ _____ _____    ______ ____
ROOT
ATOM      1  O   HOH     1      28.219  -4.551   0.344  0.00  0.00    +0.000 OA
ENDROOT
TORSDOF 0
REMARK  Name = ../refined-set-2016/3t1l/3t1l_pocket.pdb
REMARK  112 active torsions:
REMARK  status: ('A' for Active; 'I' for Inactive)
REMARK    1  A    between atoms: _1  and  _3
REMARK    2  A    between atoms: _3  and  _4
REMARK    3  A    between atoms: _3  and  _6
REMARK    4  A    between atoms: _6  and  _7
REMARK    5  A    between atoms: _12  and  _14
REMARK    6  A    between atoms: _14  and  _15
REMARK    7  A    between atoms: _14  and  _17
REMARK    8  A    between atoms: _17  and  _18
REMARK    9  A    between atoms: _18  and  _19
REMARK   10  A    between atoms: _19  and  _20
REMARK   11  A    between atoms: _29  and  _31
REMARK   12  A    between atoms: _31  and  _32
REMARK   13  A    between atoms: _31  and  _34
REMARK   14  A    between atoms: _34  and  _35
REMARK   15  A    between atoms: _38  and  _40
REMARK   16  A    between atoms: _40  and  _41
REMARK   17  A    between atoms: _44  and  _46
REMARK   18  A    between atoms: _46  and  _47
REMARK   19  A    between atoms: _46  and  _49
REMARK   20  A    between atoms: _49  and  _50
REMARK   21  A    between atoms: _53  and  _55
REMARK   22  A    between atoms: _55  and  _56
REMARK   23  A    between atoms: _55  and  _58
REMARK   24  A    between atoms: _58  and  _59
REMARK   25  A    between atoms: _59  and  _60
REMARK   26  A    between atoms: _65  and  _67
REMARK   27  A    between atoms: _67  and  _68
REMARK   28  A    between atoms: _67  and  _70
REMARK   29  A    between atoms: _73  and  _75
REMARK   30  A    between atoms: _75  and  _76
REMARK   31  A    between atoms: _75  and  _78
REMARK   32  A    between atoms: _78  and  _79
REMARK   33  A    between atoms: _84  and  _86
REMARK   34  A    between atoms: _86  and  _87
REMARK   35  A    between atoms: _86  and  _89
REMARK   36  A    between atoms: _89  and  _90
REMARK   37  A    between atoms: _96  and  _98
REMARK   38  A    between atoms: _98  and  _99
REMARK   39  A    between atoms: _98  and  _101
REMARK   40  A    between atoms: _101  and  _102
REMARK   41  A    between atoms: _107  and  _109
REMARK   42  A    between atoms: _109  and  _110
REMARK   43  A    between atoms: _109  and  _112
REMARK   44  A    between atoms: _112  and  _113
REMARK   45  A    between atoms: _113  and  _114
REMARK   46  A    between atoms: _114  and  _115
REMARK   47  A    between atoms: _124  and  _126
REMARK   48  A    between atoms: _126  and  _127
REMARK   49  A    between atoms: _126  and  _129
REMARK   50  A    between atoms: _129  and  _130
REMARK   51  A    between atoms: _130  and  _131
REMARK   52  A    between atoms: _134  and  _136
REMARK   53  A    between atoms: _136  and  _137
REMARK   54  A    between atoms: _136  and  _139
REMARK   55  A    between atoms: _142  and  _144
REMARK   56  A    between atoms: _144  and  _145
REMARK   57  A    between atoms: _144  and  _147
REMARK   58  A    between atoms: _149  and  _151
REMARK   59  A    between atoms: _151  and  _152
REMARK   60  A    between atoms: _151  and  _154
REMARK   61  A    between atoms: _154  and  _155
REMARK   62  A    between atoms: _160  and  _162
REMARK   63  A    between atoms: _162  and  _163
REMARK   64  A    between atoms: _162  and  _165
REMARK   65  A    between atoms: _165  and  _166
REMARK   66  A    between atoms: _169  and  _171
REMARK   67  A    between atoms: _171  and  _172
REMARK   68  A    between atoms: _171  and  _174
REMARK   69  A    between atoms: _174  and  _175
REMARK   70  A    between atoms: _175  and  _176
REMARK   71  A    between atoms: _176  and  _177
REMARK   72  A    between atoms: _177  and  _178
REMARK   73  A    between atoms: _182  and  _184
REMARK   74  A    between atoms: _184  and  _185
REMARK   75  A    between atoms: _184  and  _187
REMARK   76  A    between atoms: _187  and  _188
REMARK   77  A    between atoms: _198  and  _200
REMARK   78  A    between atoms: _200  and  _201
REMARK   79  A    between atoms: _203  and  _205
REMARK   80  A    between atoms: _205  and  _206
REMARK   81  A    between atoms: _205  and  _208
REMARK   82  A    between atoms: _208  and  _209
REMARK   83  A    between atoms: _209  and  _210
REMARK   84  A    between atoms: _210  and  _211
REMARK   85  A    between atoms: _220  and  _222
REMARK   86  A    between atoms: _222  and  _223
REMARK   87  A    between atoms: _222  and  _225
REMARK   88  A    between atoms: _225  and  _226
REMARK   89  A    between atoms: _226  and  _227
REMARK   90  A    between atoms: _230  and  _232
REMARK   91  A    between atoms: _232  and  _233
REMARK   92  A    between atoms: _232  and  _235
REMARK   93  A    between atoms: _235  and  _236
REMARK   94  A    between atoms: _236  and  _237
REMARK   95  A    between atoms: _240  and  _242
REMARK   96  A    between atoms: _242  and  _243
REMARK   97  A    between atoms: _242  and  _245
REMARK   98  A    between atoms: _245  and  _246
REMARK   99  A    between atoms: _246  and  _247
REMARK  100  A    between atoms: _247  and  _248
REMARK  101  A    between atoms: _257  and  _259
REMARK  102  A    between atoms: _259  and  _260
REMARK  103  A    between atoms: _259  and  _262
REMARK  104  A    between atoms: _262  and  _263
REMARK  105  A    between atoms: _263  and  _264
REMARK  106  A    between atoms: _264  and  _265
REMARK  107  A    between atoms: _274  and  _276
REMARK  108  A    between atoms: _276  and  _277
REMARK  109  A    between atoms: _276  and  _279
REMARK  110  A    between atoms: _279  and  _280
REMARK  111  A    between atoms: _282  and  _284
REMARK  112  A    between atoms: _284  and  _285
REMARK                            x       y       z     vdW  Elec       q    Type
REMARK                         _______ _______ _______ _____ _____    ______ ____
ROOT
ATOM      1  O   HOH     1      22.591  -5.960  -7.345  0.00  0.00    +0.000 OA
ENDROOT
TORSDOF 0
REMARK  Name = ../refined-set-2016/3t1l/3t1l_pocket.pdb
REMARK  112 active torsions:
REMARK  status: ('A' for Active; 'I' for Inactive)
REMARK    1  A    between atoms: _1  and  _3
REMARK    2  A    between atoms: _3  and  _4
REMARK    3  A    between atoms: _3  and  _6
REMARK    4  A    between atoms: _6  and  _7
REMARK    5  A    between atoms: _12  and  _14
REMARK    6  A    between atoms: _14  and  _15
REMARK    7  A    between atoms: _14  and  _17
REMARK    8  A    between atoms: _17  and  _18
REMARK    9  A    between atoms: _18  and  _19
REMARK   10  A    between atoms: _19  and  _20
REMARK   11  A    between atoms: _29  and  _31
REMARK   12  A    between atoms: _31  and  _32
REMARK   13  A    between atoms: _31  and  _34
REMARK   14  A    between atoms: _34  and  _35
REMARK   15  A    between atoms: _38  and  _40
REMARK   16  A    between atoms: _40  and  _41
REMARK   17  A    between atoms: _44  and  _46
REMARK   18  A    between atoms: _46  and  _47
REMARK   19  A    between atoms: _46  and  _49
REMARK   20  A    between atoms: _49  and  _50
REMARK   21  A    between atoms: _53  and  _55
REMARK   22  A    between atoms: _55  and  _56
REMARK   23  A    between atoms: _55  and  _58
REMARK   24  A    between atoms: _58  and  _59
REMARK   25  A    between atoms: _59  and  _60
REMARK   26  A    between atoms: _65  and  _67
REMARK   27  A    between atoms: _67  and  _68
REMARK   28  A    between atoms: _67  and  _70
REMARK   29  A    between atoms: _73  and  _75
REMARK   30  A    between atoms: _75  and  _76
REMARK   31  A    between atoms: _75  and  _78
REMARK   32  A    between atoms: _78  and  _79
REMARK   33  A    between atoms: _84  and  _86
REMARK   34  A    between atoms: _86  and  _87
REMARK   35  A    between atoms: _86  and  _89
REMARK   36  A    between atoms: _89  and  _90
REMARK   37  A    between atoms: _96  and  _98
REMARK   38  A    between atoms: _98  and  _99
REMARK   39  A    between atoms: _98  and  _101
REMARK   40  A    between atoms: _101  and  _102
REMARK   41  A    between atoms: _107  and  _109
REMARK   42  A    between atoms: _109  and  _110
REMARK   43  A    between atoms: _109  and  _112
REMARK   44  A    between atoms: _112  and  _113
REMARK   45  A    between atoms: _113  and  _114
REMARK   46  A    between atoms: _114  and  _115
REMARK   47  A    between atoms: _124  and  _126
REMARK   48  A    between atoms: _126  and  _127
REMARK   49  A    between atoms: _126  and  _129
REMARK   50  A    between atoms: _129  and  _130
REMARK   51  A    between atoms: _130  and  _131
REMARK   52  A    between atoms: _134  and  _136
REMARK   53  A    between atoms: _136  and  _137
REMARK   54  A    between atoms: _136  and  _139
REMARK   55  A    between atoms: _142  and  _144
REMARK   56  A    between atoms: _144  and  _145
REMARK   57  A    between atoms: _144  and  _147
REMARK   58  A    between atoms: _149  and  _151
REMARK   59  A    between atoms: _151  and  _152
REMARK   60  A    between atoms: _151  and  _154
REMARK   61  A    between atoms: _154  and  _155
REMARK   62  A    between atoms: _160  and  _162
REMARK   63  A    between atoms: _162  and  _163
REMARK   64  A    between atoms: _162  and  _165
REMARK   65  A    between atoms: _165  and  _166
REMARK   66  A    between atoms: _169  and  _171
REMARK   67  A    between atoms: _171  and  _172
REMARK   68  A    between atoms: _171  and  _174
REMARK   69  A    between atoms: _174  and  _175
REMARK   70  A    between atoms: _175  and  _176
REMARK   71  A    between atoms: _176  and  _177
REMARK   72  A    between atoms: _177  and  _178
REMARK   73  A    between atoms: _182  and  _184
REMARK   74  A    between atoms: _184  and  _185
REMARK   75  A    between atoms: _184  and  _187
REMARK   76  A    between atoms: _187  and  _188
REMARK   77  A    between atoms: _198  and  _200
REMARK   78  A    between atoms: _200  and  _201
REMARK   79  A    between atoms: _203  and  _205
REMARK   80  A    between atoms: _205  and  _206
REMARK   81  A    between atoms: _205  and  _208
REMARK   82  A    between atoms: _208  and  _209
REMARK   83  A    between atoms: _209  and  _210
REMARK   84  A    between atoms: _210  and  _211
REMARK   85  A    between atoms: _220  and  _222
REMARK   86  A    between atoms: _222  and  _223
REMARK   87  A    between atoms: _222  and  _225
REMARK   88  A    between atoms: _225  and  _226
REMARK   89  A    between atoms: _226  and  _227
REMARK   90  A    between atoms: _230  and  _232
REMARK   91  A    between atoms: _232  and  _233
REMARK   92  A    between atoms: _232  and  _235
REMARK   93  A    between atoms: _235  and  _236
REMARK   94  A    between atoms: _236  and  _237
REMARK   95  A    between atoms: _240  and  _242
REMARK   96  A    between atoms: _242  and  _243
REMARK   97  A    between atoms: _242  and  _245
REMARK   98  A    between atoms: _245  and  _246
REMARK   99  A    between atoms: _246  and  _247
REMARK  100  A    between atoms: _247  and  _248
REMARK  101  A    between atoms: _257  and  _259
REMARK  102  A    between atoms: _259  and  _260
REMARK  103  A    between atoms: _259  and  _262
REMARK  104  A    between atoms: _262  and  _263
REMARK  105  A    between atoms: _263  and  _264
REMARK  106  A    between atoms: _264  and  _265
REMARK  107  A    between atoms: _274  and  _276
REMARK  108  A    between atoms: _276  and  _277
REMARK  109  A    between atoms: _276  and  _279
REMARK  110  A    between atoms: _279  and  _280
REMARK  111  A    between atoms: _282  and  _284
REMARK  112  A    between atoms: _284  and  _285
REMARK                            x       y       z     vdW  Elec       q    Type
REMARK                         _______ _______ _______ _____ _____    ______ ____
ROOT
ATOM      1  O   HOH     1      12.389  -5.604  -0.217  0.00  0.00    +0.000 OA
ENDROOT
TORSDOF 0
REMARK  Name = ../refined-set-2016/3t1l/3t1l_pocket.pdb
REMARK  112 active torsions:
REMARK  status: ('A' for Active; 'I' for Inactive)
REMARK    1  A    between atoms: _1  and  _3
REMARK    2  A    between atoms: _3  and  _4
REMARK    3  A    between atoms: _3  and  _6
REMARK    4  A    between atoms: _6  and  _7
REMARK    5  A    between atoms: _12  and  _14
REMARK    6  A    between atoms: _14  and  _15
REMARK    7  A    between atoms: _14  and  _17
REMARK    8  A    between atoms: _17  and  _18
REMARK    9  A    between atoms: _18  and  _19
REMARK   10  A    between atoms: _19  and  _20
REMARK   11  A    between atoms: _29  and  _31
REMARK   12  A    between atoms: _31  and  _32
REMARK   13  A    between atoms: _31  and  _34
REMARK   14  A    between atoms: _34  and  _35
REMARK   15  A    between atoms: _38  and  _40
REMARK   16  A    between atoms: _40  and  _41
REMARK   17  A    between atoms: _44  and  _46
REMARK   18  A    between atoms: _46  and  _47
REMARK   19  A    between atoms: _46  and  _49
REMARK   20  A    between atoms: _49  and  _50
REMARK   21  A    between atoms: _53  and  _55
REMARK   22  A    between atoms: _55  and  _56
REMARK   23  A    between atoms: _55  and  _58
REMARK   24  A    between atoms: _58  and  _59
REMARK   25  A    between atoms: _59  and  _60
REMARK   26  A    between atoms: _65  and  _67
REMARK   27  A    between atoms: _67  and  _68
REMARK   28  A    between atoms: _67  and  _70
REMARK   29  A    between atoms: _73  and  _75
REMARK   30  A    between atoms: _75  and  _76
REMARK   31  A    between atoms: _75  and  _78
REMARK   32  A    between atoms: _78  and  _79
REMARK   33  A    between atoms: _84  and  _86
REMARK   34  A    between atoms: _86  and  _87
REMARK   35  A    between atoms: _86  and  _89
REMARK   36  A    between atoms: _89  and  _90
REMARK   37  A    between atoms: _96  and  _98
REMARK   38  A    between atoms: _98  and  _99
REMARK   39  A    between atoms: _98  and  _101
REMARK   40  A    between atoms: _101  and  _102
REMARK   41  A    between atoms: _107  and  _109
REMARK   42  A    between atoms: _109  and  _110
REMARK   43  A    between atoms: _109  and  _112
REMARK   44  A    between atoms: _112  and  _113
REMARK   45  A    between atoms: _113  and  _114
REMARK   46  A    between atoms: _114  and  _115
REMARK   47  A    between atoms: _124  and  _126
REMARK   48  A    between atoms: _126  and  _127
REMARK   49  A    between atoms: _126  and  _129
REMARK   50  A    between atoms: _129  and  _130
REMARK   51  A    between atoms: _130  and  _131
REMARK   52  A    between atoms: _134  and  _136
REMARK   53  A    between atoms: _136  and  _137
REMARK   54  A    between atoms: _136  and  _139
REMARK   55  A    between atoms: _142  and  _144
REMARK   56  A    between atoms: _144  and  _145
REMARK   57  A    between atoms: _144  and  _147
REMARK   58  A    between atoms: _149  and  _151
REMARK   59  A    between atoms: _151  and  _152
REMARK   60  A    between atoms: _151  and  _154
REMARK   61  A    between atoms: _154  and  _155
REMARK   62  A    between atoms: _160  and  _162
REMARK   63  A    between atoms: _162  and  _163
REMARK   64  A    between atoms: _162  and  _165
REMARK   65  A    between atoms: _165  and  _166
REMARK   66  A    between atoms: _169  and  _171
REMARK   67  A    between atoms: _171  and  _172
REMARK   68  A    between atoms: _171  and  _174
REMARK   69  A    between atoms: _174  and  _175
REMARK   70  A    between atoms: _175  and  _176
REMARK   71  A    between atoms: _176  and  _177
REMARK   72  A    between atoms: _177  and  _178
REMARK   73  A    between atoms: _182  and  _184
REMARK   74  A    between atoms: _184  and  _185
REMARK   75  A    between atoms: _184  and  _187
REMARK   76  A    between atoms: _187  and  _188
REMARK   77  A    between atoms: _198  and  _200
REMARK   78  A    between atoms: _200  and  _201
REMARK   79  A    between atoms: _203  and  _205
REMARK   80  A    between atoms: _205  and  _206
REMARK   81  A    between atoms: _205  and  _208
REMARK   82  A    between atoms: _208  and  _209
REMARK   83  A    between atoms: _209  and  _210
REMARK   84  A    between atoms: _210  and  _211
REMARK   85  A    between atoms: _220  and  _222
REMARK   86  A    between atoms: _222  and  _223
REMARK   87  A    between atoms: _222  and  _225
REMARK   88  A    between atoms: _225  and  _226
REMARK   89  A    between atoms: _226  and  _227
REMARK   90  A    between atoms: _230  and  _232
REMARK   91  A    between atoms: _232  and  _233
REMARK   92  A    between atoms: _232  and  _235
REMARK   93  A    between atoms: _235  and  _236
REMARK   94  A    between atoms: _236  and  _237
REMARK   95  A    between atoms: _240  and  _242
REMARK   96  A    between atoms: _242  and  _243
REMARK   97  A    between atoms: _242  and  _245
REMARK   98  A    between atoms: _245  and  _246
REMARK   99  A    between atoms: _246  and  _247
REMARK  100  A    between atoms: _247  and  _248
REMARK  101  A    between atoms: _257  and  _259
REMARK  102  A    between atoms: _259  and  _260
REMARK  103  A    between atoms: _259  and  _262
REMARK  104  A    between atoms: _262  and  _263
REMARK  105  A    between atoms: _263  and  _264
REMARK  106  A    between atoms: _264  and  _265
REMARK  107  A    between atoms: _274  and  _276
REMARK  108  A    between atoms: _276  and  _277
REMARK  109  A    between atoms: _276  and  _279
REMARK  110  A    between atoms: _279  and  _280
REMARK  111  A    between atoms: _282  and  _284
REMARK  112  A    between atoms: _284  and  _285
REMARK                            x       y       z     vdW  Elec       q    Type
REMARK                         _______ _______ _______ _____ _____    ______ ____
ROOT
ATOM      1  O   HOH     1      13.550  -3.798  -2.768  0.00  0.00    +0.000 OA
ENDROOT
TORSDOF 0
REMARK  Name = ../refined-set-2016/3t1l/3t1l_pocket.pdb
REMARK  112 active torsions:
REMARK  status: ('A' for Active; 'I' for Inactive)
REMARK    1  A    between atoms: _1  and  _3
REMARK    2  A    between atoms: _3  and  _4
REMARK    3  A    between atoms: _3  and  _6
REMARK    4  A    between atoms: _6  and  _7
REMARK    5  A    between atoms: _12  and  _14
REMARK    6  A    between atoms: _14  and  _15
REMARK    7  A    between atoms: _14  and  _17
REMARK    8  A    between atoms: _17  and  _18
REMARK    9  A    between atoms: _18  and  _19
REMARK   10  A    between atoms: _19  and  _20
REMARK   11  A    between atoms: _29  and  _31
REMARK   12  A    between atoms: _31  and  _32
REMARK   13  A    between atoms: _31  and  _34
REMARK   14  A    between atoms: _34  and  _35
REMARK   15  A    between atoms: _38  and  _40
REMARK   16  A    between atoms: _40  and  _41
REMARK   17  A    between atoms: _44  and  _46
REMARK   18  A    between atoms: _46  and  _47
REMARK   19  A    between atoms: _46  and  _49
REMARK   20  A    between atoms: _49  and  _50
REMARK   21  A    between atoms: _53  and  _55
REMARK   22  A    between atoms: _55  and  _56
REMARK   23  A    between atoms: _55  and  _58
REMARK   24  A    between atoms: _58  and  _59
REMARK   25  A    between atoms: _59  and  _60
REMARK   26  A    between atoms: _65  and  _67
REMARK   27  A    between atoms: _67  and  _68
REMARK   28  A    between atoms: _67  and  _70
REMARK   29  A    between atoms: _73  and  _75
REMARK   30  A    between atoms: _75  and  _76
REMARK   31  A    between atoms: _75  and  _78
REMARK   32  A    between atoms: _78  and  _79
REMARK   33  A    between atoms: _84  and  _86
REMARK   34  A    between atoms: _86  and  _87
REMARK   35  A    between atoms: _86  and  _89
REMARK   36  A    between atoms: _89  and  _90
REMARK   37  A    between atoms: _96  and  _98
REMARK   38  A    between atoms: _98  and  _99
REMARK   39  A    between atoms: _98  and  _101
REMARK   40  A    between atoms: _101  and  _102
REMARK   41  A    between atoms: _107  and  _109
REMARK   42  A    between atoms: _109  and  _110
REMARK   43  A    between atoms: _109  and  _112
REMARK   44  A    between atoms: _112  and  _113
REMARK   45  A    between atoms: _113  and  _114
REMARK   46  A    between atoms: _114  and  _115
REMARK   47  A    between atoms: _124  and  _126
REMARK   48  A    between atoms: _126  and  _127
REMARK   49  A    between atoms: _126  and  _129
REMARK   50  A    between atoms: _129  and  _130
REMARK   51  A    between atoms: _130  and  _131
REMARK   52  A    between atoms: _134  and  _136
REMARK   53  A    between atoms: _136  and  _137
REMARK   54  A    between atoms: _136  and  _139
REMARK   55  A    between atoms: _142  and  _144
REMARK   56  A    between atoms: _144  and  _145
REMARK   57  A    between atoms: _144  and  _147
REMARK   58  A    between atoms: _149  and  _151
REMARK   59  A    between atoms: _151  and  _152
REMARK   60  A    between atoms: _151  and  _154
REMARK   61  A    between atoms: _154  and  _155
REMARK   62  A    between atoms: _160  and  _162
REMARK   63  A    between atoms: _162  and  _163
REMARK   64  A    between atoms: _162  and  _165
REMARK   65  A    between atoms: _165  and  _166
REMARK   66  A    between atoms: _169  and  _171
REMARK   67  A    between atoms: _171  and  _172
REMARK   68  A    between atoms: _171  and  _174
REMARK   69  A    between atoms: _174  and  _175
REMARK   70  A    between atoms: _175  and  _176
REMARK   71  A    between atoms: _176  and  _177
REMARK   72  A    between atoms: _177  and  _178
REMARK   73  A    between atoms: _182  and  _184
REMARK   74  A    between atoms: _184  and  _185
REMARK   75  A    between atoms: _184  and  _187
REMARK   76  A    between atoms: _187  and  _188
REMARK   77  A    between atoms: _198  and  _200
REMARK   78  A    between atoms: _200  and  _201
REMARK   79  A    between atoms: _203  and  _205
REMARK   80  A    between atoms: _205  and  _206
REMARK   81  A    between atoms: _205  and  _208
REMARK   82  A    between atoms: _208  and  _209
REMARK   83  A    between atoms: _209  and  _210
REMARK   84  A    between atoms: _210  and  _211
REMARK   85  A    between atoms: _220  and  _222
REMARK   86  A    between atoms: _222  and  _223
REMARK   87  A    between atoms: _222  and  _225
REMARK   88  A    between atoms: _225  and  _226
REMARK   89  A    between atoms: _226  and  _227
REMARK   90  A    between atoms: _230  and  _232
REMARK   91  A    between atoms: _232  and  _233
REMARK   92  A    between atoms: _232  and  _235
REMARK   93  A    between atoms: _235  and  _236
REMARK   94  A    between atoms: _236  and  _237
REMARK   95  A    between atoms: _240  and  _242
REMARK   96  A    between atoms: _242  and  _243
REMARK   97  A    between atoms: _242  and  _245
REMARK   98  A    between atoms: _245  and  _246
REMARK   99  A    between atoms: _246  and  _247
REMARK  100  A    between atoms: _247  and  _248
REMARK  101  A    between atoms: _257  and  _259
REMARK  102  A    between atoms: _259  and  _260
REMARK  103  A    between atoms: _259  and  _262
REMARK  104  A    between atoms: _262  and  _263
REMARK  105  A    between atoms: _263  and  _264
REMARK  106  A    between atoms: _264  and  _265
REMARK  107  A    between atoms: _274  and  _276
REMARK  108  A    between atoms: _276  and  _277
REMARK  109  A    between atoms: _276  and  _279
REMARK  110  A    between atoms: _279  and  _280
REMARK  111  A    between atoms: _282  and  _284
REMARK  112  A    between atoms: _284  and  _285
REMARK                            x       y       z     vdW  Elec       q    Type
REMARK                         _______ _______ _______ _____ _____    ______ ____
ROOT
ATOM      1  O   HOH     1      12.872  -1.670  -7.234  0.00  0.00    +0.000 OA
ENDROOT
TORSDOF 0
REMARK  Name = ../refined-set-2016/3t1l/3t1l_pocket.pdb
REMARK  112 active torsions:
REMARK  status: ('A' for Active; 'I' for Inactive)
REMARK    1  A    between atoms: _1  and  _3
REMARK    2  A    between atoms: _3  and  _4
REMARK    3  A    between atoms: _3  and  _6
REMARK    4  A    between atoms: _6  and  _7
REMARK    5  A    between atoms: _12  and  _14
REMARK    6  A    between atoms: _14  and  _15
REMARK    7  A    between atoms: _14  and  _17
REMARK    8  A    between atoms: _17  and  _18
REMARK    9  A    between atoms: _18  and  _19
REMARK   10  A    between atoms: _19  and  _20
REMARK   11  A    between atoms: _29  and  _31
REMARK   12  A    between atoms: _31  and  _32
REMARK   13  A    between atoms: _31  and  _34
REMARK   14  A    between atoms: _34  and  _35
REMARK   15  A    between atoms: _38  and  _40
REMARK   16  A    between atoms: _40  and  _41
REMARK   17  A    between atoms: _44  and  _46
REMARK   18  A    between atoms: _46  and  _47
REMARK   19  A    between atoms: _46  and  _49
REMARK   20  A    between atoms: _49  and  _50
REMARK   21  A    between atoms: _53  and  _55
REMARK   22  A    between atoms: _55  and  _56
REMARK   23  A    between atoms: _55  and  _58
REMARK   24  A    between atoms: _58  and  _59
REMARK   25  A    between atoms: _59  and  _60
REMARK   26  A    between atoms: _65  and  _67
REMARK   27  A    between atoms: _67  and  _68
REMARK   28  A    between atoms: _67  and  _70
REMARK   29  A    between atoms: _73  and  _75
REMARK   30  A    between atoms: _75  and  _76
REMARK   31  A    between atoms: _75  and  _78
REMARK   32  A    between atoms: _78  and  _79
REMARK   33  A    between atoms: _84  and  _86
REMARK   34  A    between atoms: _86  and  _87
REMARK   35  A    between atoms: _86  and  _89
REMARK   36  A    between atoms: _89  and  _90
REMARK   37  A    between atoms: _96  and  _98
REMARK   38  A    between atoms: _98  and  _99
REMARK   39  A    between atoms: _98  and  _101
REMARK   40  A    between atoms: _101  and  _102
REMARK   41  A    between atoms: _107  and  _109
REMARK   42  A    between atoms: _109  and  _110
REMARK   43  A    between atoms: _109  and  _112
REMARK   44  A    between atoms: _112  and  _113
REMARK   45  A    between atoms: _113  and  _114
REMARK   46  A    between atoms: _114  and  _115
REMARK   47  A    between atoms: _124  and  _126
REMARK   48  A    between atoms: _126  and  _127
REMARK   49  A    between atoms: _126  and  _129
REMARK   50  A    between atoms: _129  and  _130
REMARK   51  A    between atoms: _130  and  _131
REMARK   52  A    between atoms: _134  and  _136
REMARK   53  A    between atoms: _136  and  _137
REMARK   54  A    between atoms: _136  and  _139
REMARK   55  A    between atoms: _142  and  _144
REMARK   56  A    between atoms: _144  and  _145
REMARK   57  A    between atoms: _144  and  _147
REMARK   58  A    between atoms: _149  and  _151
REMARK   59  A    between atoms: _151  and  _152
REMARK   60  A    between atoms: _151  and  _154
REMARK   61  A    between atoms: _154  and  _155
REMARK   62  A    between atoms: _160  and  _162
REMARK   63  A    between atoms: _162  and  _163
REMARK   64  A    between atoms: _162  and  _165
REMARK   65  A    between atoms: _165  and  _166
REMARK   66  A    between atoms: _169  and  _171
REMARK   67  A    between atoms: _171  and  _172
REMARK   68  A    between atoms: _171  and  _174
REMARK   69  A    between atoms: _174  and  _175
REMARK   70  A    between atoms: _175  and  _176
REMARK   71  A    between atoms: _176  and  _177
REMARK   72  A    between atoms: _177  and  _178
REMARK   73  A    between atoms: _182  and  _184
REMARK   74  A    between atoms: _184  and  _185
REMARK   75  A    between atoms: _184  and  _187
REMARK   76  A    between atoms: _187  and  _188
REMARK   77  A    between atoms: _198  and  _200
REMARK   78  A    between atoms: _200  and  _201
REMARK   79  A    between atoms: _203  and  _205
REMARK   80  A    between atoms: _205  and  _206
REMARK   81  A    between atoms: _205  and  _208
REMARK   82  A    between atoms: _208  and  _209
REMARK   83  A    between atoms: _209  and  _210
REMARK   84  A    between atoms: _210  and  _211
REMARK   85  A    between atoms: _220  and  _222
REMARK   86  A    between atoms: _222  and  _223
REMARK   87  A    between atoms: _222  and  _225
REMARK   88  A    between atoms: _225  and  _226
REMARK   89  A    between atoms: _226  and  _227
REMARK   90  A    between atoms: _230  and  _232
REMARK   91  A    between atoms: _232  and  _233
REMARK   92  A    between atoms: _232  and  _235
REMARK   93  A    between atoms: _235  and  _236
REMARK   94  A    between atoms: _236  and  _237
REMARK   95  A    between atoms: _240  and  _242
REMARK   96  A    between atoms: _242  and  _243
REMARK   97  A    between atoms: _242  and  _245
REMARK   98  A    between atoms: _245  and  _246
REMARK   99  A    between atoms: _246  and  _247
REMARK  100  A    between atoms: _247  and  _248
REMARK  101  A    between atoms: _257  and  _259
REMARK  102  A    between atoms: _259  and  _260
REMARK  103  A    between atoms: _259  and  _262
REMARK  104  A    between atoms: _262  and  _263
REMARK  105  A    between atoms: _263  and  _264
REMARK  106  A    between atoms: _264  and  _265
REMARK  107  A    between atoms: _274  and  _276
REMARK  108  A    between atoms: _276  and  _277
REMARK  109  A    between atoms: _276  and  _279
REMARK  110  A    between atoms: _279  and  _280
REMARK  111  A    between atoms: _282  and  _284
REMARK  112  A    between atoms: _284  and  _285
REMARK                            x       y       z     vdW  Elec       q    Type
REMARK                         _______ _______ _______ _____ _____    ______ ____
ROOT
ATOM      1  O   HOH     1      23.124  -9.346   1.439  0.00  0.00    +0.000 OA
ENDROOT
TORSDOF 0
REMARK  Name = ../refined-set-2016/3t1l/3t1l_pocket.pdb
REMARK  112 active torsions:
REMARK  status: ('A' for Active; 'I' for Inactive)
REMARK    1  A    between atoms: _1  and  _3
REMARK    2  A    between atoms: _3  and  _4
REMARK    3  A    between atoms: _3  and  _6
REMARK    4  A    between atoms: _6  and  _7
REMARK    5  A    between atoms: _12  and  _14
REMARK    6  A    between atoms: _14  and  _15
REMARK    7  A    between atoms: _14  and  _17
REMARK    8  A    between atoms: _17  and  _18
REMARK    9  A    between atoms: _18  and  _19
REMARK   10  A    between atoms: _19  and  _20
REMARK   11  A    between atoms: _29  and  _31
REMARK   12  A    between atoms: _31  and  _32
REMARK   13  A    between atoms: _31  and  _34
REMARK   14  A    between atoms: _34  and  _35
REMARK   15  A    between atoms: _38  and  _40
REMARK   16  A    between atoms: _40  and  _41
REMARK   17  A    between atoms: _44  and  _46
REMARK   18  A    between atoms: _46  and  _47
REMARK   19  A    between atoms: _46  and  _49
REMARK   20  A    between atoms: _49  and  _50
REMARK   21  A    between atoms: _53  and  _55
REMARK   22  A    between atoms: _55  and  _56
REMARK   23  A    between atoms: _55  and  _58
REMARK   24  A    between atoms: _58  and  _59
REMARK   25  A    between atoms: _59  and  _60
REMARK   26  A    between atoms: _65  and  _67
REMARK   27  A    between atoms: _67  and  _68
REMARK   28  A    between atoms: _67  and  _70
REMARK   29  A    between atoms: _73  and  _75
REMARK   30  A    between atoms: _75  and  _76
REMARK   31  A    between atoms: _75  and  _78
REMARK   32  A    between atoms: _78  and  _79
REMARK   33  A    between atoms: _84  and  _86
REMARK   34  A    between atoms: _86  and  _87
REMARK   35  A    between atoms: _86  and  _89
REMARK   36  A    between atoms: _89  and  _90
REMARK   37  A    between atoms: _96  and  _98
REMARK   38  A    between atoms: _98  and  _99
REMARK   39  A    between atoms: _98  and  _101
REMARK   40  A    between atoms: _101  and  _102
REMARK   41  A    between atoms: _107  and  _109
REMARK   42  A    between atoms: _109  and  _110
REMARK   43  A    between atoms: _109  and  _112
REMARK   44  A    between atoms: _112  and  _113
REMARK   45  A    between atoms: _113  and  _114
REMARK   46  A    between atoms: _114  and  _115
REMARK   47  A    between atoms: _124  and  _126
REMARK   48  A    between atoms: _126  and  _127
REMARK   49  A    between atoms: _126  and  _129
REMARK   50  A    between atoms: _129  and  _130
REMARK   51  A    between atoms: _130  and  _131
REMARK   52  A    between atoms: _134  and  _136
REMARK   53  A    between atoms: _136  and  _137
REMARK   54  A    between atoms: _136  and  _139
REMARK   55  A    between atoms: _142  and  _144
REMARK   56  A    between atoms: _144  and  _145
REMARK   57  A    between atoms: _144  and  _147
REMARK   58  A    between atoms: _149  and  _151
REMARK   59  A    between atoms: _151  and  _152
REMARK   60  A    between atoms: _151  and  _154
REMARK   61  A    between atoms: _154  and  _155
REMARK   62  A    between atoms: _160  and  _162
REMARK   63  A    between atoms: _162  and  _163
REMARK   64  A    between atoms: _162  and  _165
REMARK   65  A    between atoms: _165  and  _166
REMARK   66  A    between atoms: _169  and  _171
REMARK   67  A    between atoms: _171  and  _172
REMARK   68  A    between atoms: _171  and  _174
REMARK   69  A    between atoms: _174  and  _175
REMARK   70  A    between atoms: _175  and  _176
REMARK   71  A    between atoms: _176  and  _177
REMARK   72  A    between atoms: _177  and  _178
REMARK   73  A    between atoms: _182  and  _184
REMARK   74  A    between atoms: _184  and  _185
REMARK   75  A    between atoms: _184  and  _187
REMARK   76  A    between atoms: _187  and  _188
REMARK   77  A    between atoms: _198  and  _200
REMARK   78  A    between atoms: _200  and  _201
REMARK   79  A    between atoms: _203  and  _205
REMARK   80  A    between atoms: _205  and  _206
REMARK   81  A    between atoms: _205  and  _208
REMARK   82  A    between atoms: _208  and  _209
REMARK   83  A    between atoms: _209  and  _210
REMARK   84  A    between atoms: _210  and  _211
REMARK   85  A    between atoms: _220  and  _222
REMARK   86  A    between atoms: _222  and  _223
REMARK   87  A    between atoms: _222  and  _225
REMARK   88  A    between atoms: _225  and  _226
REMARK   89  A    between atoms: _226  and  _227
REMARK   90  A    between atoms: _230  and  _232
REMARK   91  A    between atoms: _232  and  _233
REMARK   92  A    between atoms: _232  and  _235
REMARK   93  A    between atoms: _235  and  _236
REMARK   94  A    between atoms: _236  and  _237
REMARK   95  A    between atoms: _240  and  _242
REMARK   96  A    between atoms: _242  and  _243
REMARK   97  A    between atoms: _242  and  _245
REMARK   98  A    between atoms: _245  and  _246
REMARK   99  A    between atoms: _246  and  _247
REMARK  100  A    between atoms: _247  and  _248
REMARK  101  A    between atoms: _257  and  _259
REMARK  102  A    between atoms: _259  and  _260
REMARK  103  A    between atoms: _259  and  _262
REMARK  104  A    between atoms: _262  and  _263
REMARK  105  A    between atoms: _263  and  _264
REMARK  106  A    between atoms: _264  and  _265
REMARK  107  A    between atoms: _274  and  _276
REMARK  108  A    between atoms: _276  and  _277
REMARK  109  A    between atoms: _276  and  _279
REMARK  110  A    between atoms: _279  and  _280
REMARK  111  A    between atoms: _282  and  _284
REMARK  112  A    between atoms: _284  and  _285
REMARK                            x       y       z     vdW  Elec       q    Type
REMARK                         _______ _______ _______ _____ _____    ______ ____
ROOT
ATOM      1  O   HOH     1      16.787 -12.958   4.781  0.00  0.00    +0.000 OA
ENDROOT
TORSDOF 0
REMARK  Name = ../refined-set-2016/3t1l/3t1l_pocket.pdb
REMARK  112 active torsions:
REMARK  status: ('A' for Active; 'I' for Inactive)
REMARK    1  A    between atoms: _1  and  _3
REMARK    2  A    between atoms: _3  and  _4
REMARK    3  A    between atoms: _3  and  _6
REMARK    4  A    between atoms: _6  and  _7
REMARK    5  A    between atoms: _12  and  _14
REMARK    6  A    between atoms: _14  and  _15
REMARK    7  A    between atoms: _14  and  _17
REMARK    8  A    between atoms: _17  and  _18
REMARK    9  A    between atoms: _18  and  _19
REMARK   10  A    between atoms: _19  and  _20
REMARK   11  A    between atoms: _29  and  _31
REMARK   12  A    between atoms: _31  and  _32
REMARK   13  A    between atoms: _31  and  _34
REMARK   14  A    between atoms: _34  and  _35
REMARK   15  A    between atoms: _38  and  _40
REMARK   16  A    between atoms: _40  and  _41
REMARK   17  A    between atoms: _44  and  _46
REMARK   18  A    between atoms: _46  and  _47
REMARK   19  A    between atoms: _46  and  _49
REMARK   20  A    between atoms: _49  and  _50
REMARK   21  A    between atoms: _53  and  _55
REMARK   22  A    between atoms: _55  and  _56
REMARK   23  A    between atoms: _55  and  _58
REMARK   24  A    between atoms: _58  and  _59
REMARK   25  A    between atoms: _59  and  _60
REMARK   26  A    between atoms: _65  and  _67
REMARK   27  A    between atoms: _67  and  _68
REMARK   28  A    between atoms: _67  and  _70
REMARK   29  A    between atoms: _73  and  _75
REMARK   30  A    between atoms: _75  and  _76
REMARK   31  A    between atoms: _75  and  _78
REMARK   32  A    between atoms: _78  and  _79
REMARK   33  A    between atoms: _84  and  _86
REMARK   34  A    between atoms: _86  and  _87
REMARK   35  A    between atoms: _86  and  _89
REMARK   36  A    between atoms: _89  and  _90
REMARK   37  A    between atoms: _96  and  _98
REMARK   38  A    between atoms: _98  and  _99
REMARK   39  A    between atoms: _98  and  _101
REMARK   40  A    between atoms: _101  and  _102
REMARK   41  A    between atoms: _107  and  _109
REMARK   42  A    between atoms: _109  and  _110
REMARK   43  A    between atoms: _109  and  _112
REMARK   44  A    between atoms: _112  and  _113
REMARK   45  A    between atoms: _113  and  _114
REMARK   46  A    between atoms: _114  and  _115
REMARK   47  A    between atoms: _124  and  _126
REMARK   48  A    between atoms: _126  and  _127
REMARK   49  A    between atoms: _126  and  _129
REMARK   50  A    between atoms: _129  and  _130
REMARK   51  A    between atoms: _130  and  _131
REMARK   52  A    between atoms: _134  and  _136
REMARK   53  A    between atoms: _136  and  _137
REMARK   54  A    between atoms: _136  and  _139
REMARK   55  A    between atoms: _142  and  _144
REMARK   56  A    between atoms: _144  and  _145
REMARK   57  A    between atoms: _144  and  _147
REMARK   58  A    between atoms: _149  and  _151
REMARK   59  A    between atoms: _151  and  _152
REMARK   60  A    between atoms: _151  and  _154
REMARK   61  A    between atoms: _154  and  _155
REMARK   62  A    between atoms: _160  and  _162
REMARK   63  A    between atoms: _162  and  _163
REMARK   64  A    between atoms: _162  and  _165
REMARK   65  A    between atoms: _165  and  _166
REMARK   66  A    between atoms: _169  and  _171
REMARK   67  A    between atoms: _171  and  _172
REMARK   68  A    between atoms: _171  and  _174
REMARK   69  A    between atoms: _174  and  _175
REMARK   70  A    between atoms: _175  and  _176
REMARK   71  A    between atoms: _176  and  _177
REMARK   72  A    between atoms: _177  and  _178
REMARK   73  A    between atoms: _182  and  _184
REMARK   74  A    between atoms: _184  and  _185
REMARK   75  A    between atoms: _184  and  _187
REMARK   76  A    between atoms: _187  and  _188
REMARK   77  A    between atoms: _198  and  _200
REMARK   78  A    between atoms: _200  and  _201
REMARK   79  A    between atoms: _203  and  _205
REMARK   80  A    between atoms: _205  and  _206
REMARK   81  A    between atoms: _205  and  _208
REMARK   82  A    between atoms: _208  and  _209
REMARK   83  A    between atoms: _209  and  _210
REMARK   84  A    between atoms: _210  and  _211
REMARK   85  A    between atoms: _220  and  _222
REMARK   86  A    between atoms: _222  and  _223
REMARK   87  A    between atoms: _222  and  _225
REMARK   88  A    between atoms: _225  and  _226
REMARK   89  A    between atoms: _226  and  _227
REMARK   90  A    between atoms: _230  and  _232
REMARK   91  A    between atoms: _232  and  _233
REMARK   92  A    between atoms: _232  and  _235
REMARK   93  A    between atoms: _235  and  _236
REMARK   94  A    between atoms: _236  and  _237
REMARK   95  A    between atoms: _240  and  _242
REMARK   96  A    between atoms: _242  and  _243
REMARK   97  A    between atoms: _242  and  _245
REMARK   98  A    between atoms: _245  and  _246
REMARK   99  A    between atoms: _246  and  _247
REMARK  100  A    between atoms: _247  and  _248
REMARK  101  A    between atoms: _257  and  _259
REMARK  102  A    between atoms: _259  and  _260
REMARK  103  A    between atoms: _259  and  _262
REMARK  104  A    between atoms: _262  and  _263
REMARK  105  A    between atoms: _263  and  _264
REMARK  106  A    between atoms: _264  and  _265
REMARK  107  A    between atoms: _274  and  _276
REMARK  108  A    between atoms: _276  and  _277
REMARK  109  A    between atoms: _276  and  _279
REMARK  110  A    between atoms: _279  and  _280
REMARK  111  A    between atoms: _282  and  _284
REMARK  112  A    between atoms: _284  and  _285
REMARK                            x       y       z     vdW  Elec       q    Type
REMARK                         _______ _______ _______ _____ _____    ______ ____
ROOT
ATOM      1  O   HOH     1      15.730 -10.543   3.651  0.00  0.00    +0.000 OA
ENDROOT
TORSDOF 0
REMARK  Name = ../refined-set-2016/3t1l/3t1l_pocket.pdb
REMARK  112 active torsions:
REMARK  status: ('A' for Active; 'I' for Inactive)
REMARK    1  A    between atoms: _1  and  _3
REMARK    2  A    between atoms: _3  and  _4
REMARK    3  A    between atoms: _3  and  _6
REMARK    4  A    between atoms: _6  and  _7
REMARK    5  A    between atoms: _12  and  _14
REMARK    6  A    between atoms: _14  and  _15
REMARK    7  A    between atoms: _14  and  _17
REMARK    8  A    between atoms: _17  and  _18
REMARK    9  A    between atoms: _18  and  _19
REMARK   10  A    between atoms: _19  and  _20
REMARK   11  A    between atoms: _29  and  _31
REMARK   12  A    between atoms: _31  and  _32
REMARK   13  A    between atoms: _31  and  _34
REMARK   14  A    between atoms: _34  and  _35
REMARK   15  A    between atoms: _38  and  _40
REMARK   16  A    between atoms: _40  and  _41
REMARK   17  A    between atoms: _44  and  _46
REMARK   18  A    between atoms: _46  and  _47
REMARK   19  A    between atoms: _46  and  _49
REMARK   20  A    between atoms: _49  and  _50
REMARK   21  A    between atoms: _53  and  _55
REMARK   22  A    between atoms: _55  and  _56
REMARK   23  A    between atoms: _55  and  _58
REMARK   24  A    between atoms: _58  and  _59
REMARK   25  A    between atoms: _59  and  _60
REMARK   26  A    between atoms: _65  and  _67
REMARK   27  A    between atoms: _67  and  _68
REMARK   28  A    between atoms: _67  and  _70
REMARK   29  A    between atoms: _73  and  _75
REMARK   30  A    between atoms: _75  and  _76
REMARK   31  A    between atoms: _75  and  _78
REMARK   32  A    between atoms: _78  and  _79
REMARK   33  A    between atoms: _84  and  _86
REMARK   34  A    between atoms: _86  and  _87
REMARK   35  A    between atoms: _86  and  _89
REMARK   36  A    between atoms: _89  and  _90
REMARK   37  A    between atoms: _96  and  _98
REMARK   38  A    between atoms: _98  and  _99
REMARK   39  A    between atoms: _98  and  _101
REMARK   40  A    between atoms: _101  and  _102
REMARK   41  A    between atoms: _107  and  _109
REMARK   42  A    between atoms: _109  and  _110
REMARK   43  A    between atoms: _109  and  _112
REMARK   44  A    between atoms: _112  and  _113
REMARK   45  A    between atoms: _113  and  _114
REMARK   46  A    between atoms: _114  and  _115
REMARK   47  A    between atoms: _124  and  _126
REMARK   48  A    between atoms: _126  and  _127
REMARK   49  A    between atoms: _126  and  _129
REMARK   50  A    between atoms: _129  and  _130
REMARK   51  A    between atoms: _130  and  _131
REMARK   52  A    between atoms: _134  and  _136
REMARK   53  A    between atoms: _136  and  _137
REMARK   54  A    between atoms: _136  and  _139
REMARK   55  A    between atoms: _142  and  _144
REMARK   56  A    between atoms: _144  and  _145
REMARK   57  A    between atoms: _144  and  _147
REMARK   58  A    between atoms: _149  and  _151
REMARK   59  A    between atoms: _151  and  _152
REMARK   60  A    between atoms: _151  and  _154
REMARK   61  A    between atoms: _154  and  _155
REMARK   62  A    between atoms: _160  and  _162
REMARK   63  A    between atoms: _162  and  _163
REMARK   64  A    between atoms: _162  and  _165
REMARK   65  A    between atoms: _165  and  _166
REMARK   66  A    between atoms: _169  and  _171
REMARK   67  A    between atoms: _171  and  _172
REMARK   68  A    between atoms: _171  and  _174
REMARK   69  A    between atoms: _174  and  _175
REMARK   70  A    between atoms: _175  and  _176
REMARK   71  A    between atoms: _176  and  _177
REMARK   72  A    between atoms: _177  and  _178
REMARK   73  A    between atoms: _182  and  _184
REMARK   74  A    between atoms: _184  and  _185
REMARK   75  A    between atoms: _184  and  _187
REMARK   76  A    between atoms: _187  and  _188
REMARK   77  A    between atoms: _198  and  _200
REMARK   78  A    between atoms: _200  and  _201
REMARK   79  A    between atoms: _203  and  _205
REMARK   80  A    between atoms: _205  and  _206
REMARK   81  A    between atoms: _205  and  _208
REMARK   82  A    between atoms: _208  and  _209
REMARK   83  A    between atoms: _209  and  _210
REMARK   84  A    between atoms: _210  and  _211
REMARK   85  A    between atoms: _220  and  _222
REMARK   86  A    between atoms: _222  and  _223
REMARK   87  A    between atoms: _222  and  _225
REMARK   88  A    between atoms: _225  and  _226
REMARK   89  A    between atoms: _226  and  _227
REMARK   90  A    between atoms: _230  and  _232
REMARK   91  A    between atoms: _232  and  _233
REMARK   92  A    between atoms: _232  and  _235
REMARK   93  A    between atoms: _235  and  _236
REMARK   94  A    between atoms: _236  and  _237
REMARK   95  A    between atoms: _240  and  _242
REMARK   96  A    between atoms: _242  and  _243
REMARK   97  A    between atoms: _242  and  _245
REMARK   98  A    between atoms: _245  and  _246
REMARK   99  A    between atoms: _246  and  _247
REMARK  100  A    between atoms: _247  and  _248
REMARK  101  A    between atoms: _257  and  _259
REMARK  102  A    between atoms: _259  and  _260
REMARK  103  A    between atoms: _259  and  _262
REMARK  104  A    between atoms: _262  and  _263
REMARK  105  A    between atoms: _263  and  _264
REMARK  106  A    between atoms: _264  and  _265
REMARK  107  A    between atoms: _274  and  _276
REMARK  108  A    between atoms: _276  and  _277
REMARK  109  A    between atoms: _276  and  _279
REMARK  110  A    between atoms: _279  and  _280
REMARK  111  A    between atoms: _282  and  _284
REMARK  112  A    between atoms: _284  and  _285
REMARK                            x       y       z     vdW  Elec       q    Type
REMARK                         _______ _______ _______ _____ _____    ______ ____
ROOT
ATOM      1  O   HOH     1      16.151  -8.894   1.735  0.00  0.00    +0.000 OA
ENDROOT
TORSDOF 0
REMARK  Name = ../refined-set-2016/3t1l/3t1l_pocket.pdb
REMARK  112 active torsions:
REMARK  status: ('A' for Active; 'I' for Inactive)
REMARK    1  A    between atoms: _1  and  _3
REMARK    2  A    between atoms: _3  and  _4
REMARK    3  A    between atoms: _3  and  _6
REMARK    4  A    between atoms: _6  and  _7
REMARK    5  A    between atoms: _12  and  _14
REMARK    6  A    between atoms: _14  and  _15
REMARK    7  A    between atoms: _14  and  _17
REMARK    8  A    between atoms: _17  and  _18
REMARK    9  A    between atoms: _18  and  _19
REMARK   10  A    between atoms: _19  and  _20
REMARK   11  A    between atoms: _29  and  _31
REMARK   12  A    between atoms: _31  and  _32
REMARK   13  A    between atoms: _31  and  _34
REMARK   14  A    between atoms: _34  and  _35
REMARK   15  A    between atoms: _38  and  _40
REMARK   16  A    between atoms: _40  and  _41
REMARK   17  A    between atoms: _44  and  _46
REMARK   18  A    between atoms: _46  and  _47
REMARK   19  A    between atoms: _46  and  _49
REMARK   20  A    between atoms: _49  and  _50
REMARK   21  A    between atoms: _53  and  _55
REMARK   22  A    between atoms: _55  and  _56
REMARK   23  A    between atoms: _55  and  _58
REMARK   24  A    between atoms: _58  and  _59
REMARK   25  A    between atoms: _59  and  _60
REMARK   26  A    between atoms: _65  and  _67
REMARK   27  A    between atoms: _67  and  _68
REMARK   28  A    between atoms: _67  and  _70
REMARK   29  A    between atoms: _73  and  _75
REMARK   30  A    between atoms: _75  and  _76
REMARK   31  A    between atoms: _75  and  _78
REMARK   32  A    between atoms: _78  and  _79
REMARK   33  A    between atoms: _84  and  _86
REMARK   34  A    between atoms: _86  and  _87
REMARK   35  A    between atoms: _86  and  _89
REMARK   36  A    between atoms: _89  and  _90
REMARK   37  A    between atoms: _96  and  _98
REMARK   38  A    between atoms: _98  and  _99
REMARK   39  A    between atoms: _98  and  _101
REMARK   40  A    between atoms: _101  and  _102
REMARK   41  A    between atoms: _107  and  _109
REMARK   42  A    between atoms: _109  and  _110
REMARK   43  A    between atoms: _109  and  _112
REMARK   44  A    between atoms: _112  and  _113
REMARK   45  A    between atoms: _113  and  _114
REMARK   46  A    between atoms: _114  and  _115
REMARK   47  A    between atoms: _124  and  _126
REMARK   48  A    between atoms: _126  and  _127
REMARK   49  A    between atoms: _126  and  _129
REMARK   50  A    between atoms: _129  and  _130
REMARK   51  A    between atoms: _130  and  _131
REMARK   52  A    between atoms: _134  and  _136
REMARK   53  A    between atoms: _136  and  _137
REMARK   54  A    between atoms: _136  and  _139
REMARK   55  A    between atoms: _142  and  _144
REMARK   56  A    between atoms: _144  and  _145
REMARK   57  A    between atoms: _144  and  _147
REMARK   58  A    between atoms: _149  and  _151
REMARK   59  A    between atoms: _151  and  _152
REMARK   60  A    between atoms: _151  and  _154
REMARK   61  A    between atoms: _154  and  _155
REMARK   62  A    between atoms: _160  and  _162
REMARK   63  A    between atoms: _162  and  _163
REMARK   64  A    between atoms: _162  and  _165
REMARK   65  A    between atoms: _165  and  _166
REMARK   66  A    between atoms: _169  and  _171
REMARK   67  A    between atoms: _171  and  _172
REMARK   68  A    between atoms: _171  and  _174
REMARK   69  A    between atoms: _174  and  _175
REMARK   70  A    between atoms: _175  and  _176
REMARK   71  A    between atoms: _176  and  _177
REMARK   72  A    between atoms: _177  and  _178
REMARK   73  A    between atoms: _182  and  _184
REMARK   74  A    between atoms: _184  and  _185
REMARK   75  A    between atoms: _184  and  _187
REMARK   76  A    between atoms: _187  and  _188
REMARK   77  A    between atoms: _198  and  _200
REMARK   78  A    between atoms: _200  and  _201
REMARK   79  A    between atoms: _203  and  _205
REMARK   80  A    between atoms: _205  and  _206
REMARK   81  A    between atoms: _205  and  _208
REMARK   82  A    between atoms: _208  and  _209
REMARK   83  A    between atoms: _209  and  _210
REMARK   84  A    between atoms: _210  and  _211
REMARK   85  A    between atoms: _220  and  _222
REMARK   86  A    between atoms: _222  and  _223
REMARK   87  A    between atoms: _222  and  _225
REMARK   88  A    between atoms: _225  and  _226
REMARK   89  A    between atoms: _226  and  _227
REMARK   90  A    between atoms: _230  and  _232
REMARK   91  A    between atoms: _232  and  _233
REMARK   92  A    between atoms: _232  and  _235
REMARK   93  A    between atoms: _235  and  _236
REMARK   94  A    between atoms: _236  and  _237
REMARK   95  A    between atoms: _240  and  _242
REMARK   96  A    between atoms: _242  and  _243
REMARK   97  A    between atoms: _242  and  _245
REMARK   98  A    between atoms: _245  and  _246
REMARK   99  A    between atoms: _246  and  _247
REMARK  100  A    between atoms: _247  and  _248
REMARK  101  A    between atoms: _257  and  _259
REMARK  102  A    between atoms: _259  and  _260
REMARK  103  A    between atoms: _259  and  _262
REMARK  104  A    between atoms: _262  and  _263
REMARK  105  A    between atoms: _263  and  _264
REMARK  106  A    between atoms: _264  and  _265
REMARK  107  A    between atoms: _274  and  _276
REMARK  108  A    between atoms: _276  and  _277
REMARK  109  A    between atoms: _276  and  _279
REMARK  110  A    between atoms: _279  and  _280
REMARK  111  A    between atoms: _282  and  _284
REMARK  112  A    between atoms: _284  and  _285
REMARK                            x       y       z     vdW  Elec       q    Type
REMARK                         _______ _______ _______ _____ _____    ______ ____
ROOT
ATOM      1  O   HOH     1      17.394  -7.465  -5.908  0.00  0.00    +0.000 OA
ENDROOT
TORSDOF 0
REMARK  Name = ../refined-set-2016/3t1l/3t1l_pocket.pdb
REMARK  112 active torsions:
REMARK  status: ('A' for Active; 'I' for Inactive)
REMARK    1  A    between atoms: _1  and  _3
REMARK    2  A    between atoms: _3  and  _4
REMARK    3  A    between atoms: _3  and  _6
REMARK    4  A    between atoms: _6  and  _7
REMARK    5  A    between atoms: _12  and  _14
REMARK    6  A    between atoms: _14  and  _15
REMARK    7  A    between atoms: _14  and  _17
REMARK    8  A    between atoms: _17  and  _18
REMARK    9  A    between atoms: _18  and  _19
REMARK   10  A    between atoms: _19  and  _20
REMARK   11  A    between atoms: _29  and  _31
REMARK   12  A    between atoms: _31  and  _32
REMARK   13  A    between atoms: _31  and  _34
REMARK   14  A    between atoms: _34  and  _35
REMARK   15  A    between atoms: _38  and  _40
REMARK   16  A    between atoms: _40  and  _41
REMARK   17  A    between atoms: _44  and  _46
REMARK   18  A    between atoms: _46  and  _47
REMARK   19  A    between atoms: _46  and  _49
REMARK   20  A    between atoms: _49  and  _50
REMARK   21  A    between atoms: _53  and  _55
REMARK   22  A    between atoms: _55  and  _56
REMARK   23  A    between atoms: _55  and  _58
REMARK   24  A    between atoms: _58  and  _59
REMARK   25  A    between atoms: _59  and  _60
REMARK   26  A    between atoms: _65  and  _67
REMARK   27  A    between atoms: _67  and  _68
REMARK   28  A    between atoms: _67  and  _70
REMARK   29  A    between atoms: _73  and  _75
REMARK   30  A    between atoms: _75  and  _76
REMARK   31  A    between atoms: _75  and  _78
REMARK   32  A    between atoms: _78  and  _79
REMARK   33  A    between atoms: _84  and  _86
REMARK   34  A    between atoms: _86  and  _87
REMARK   35  A    between atoms: _86  and  _89
REMARK   36  A    between atoms: _89  and  _90
REMARK   37  A    between atoms: _96  and  _98
REMARK   38  A    between atoms: _98  and  _99
REMARK   39  A    between atoms: _98  and  _101
REMARK   40  A    between atoms: _101  and  _102
REMARK   41  A    between atoms: _107  and  _109
REMARK   42  A    between atoms: _109  and  _110
REMARK   43  A    between atoms: _109  and  _112
REMARK   44  A    between atoms: _112  and  _113
REMARK   45  A    between atoms: _113  and  _114
REMARK   46  A    between atoms: _114  and  _115
REMARK   47  A    between atoms: _124  and  _126
REMARK   48  A    between atoms: _126  and  _127
REMARK   49  A    between atoms: _126  and  _129
REMARK   50  A    between atoms: _129  and  _130
REMARK   51  A    between atoms: _130  and  _131
REMARK   52  A    between atoms: _134  and  _136
REMARK   53  A    between atoms: _136  and  _137
REMARK   54  A    between atoms: _136  and  _139
REMARK   55  A    between atoms: _142  and  _144
REMARK   56  A    between atoms: _144  and  _145
REMARK   57  A    between atoms: _144  and  _147
REMARK   58  A    between atoms: _149  and  _151
REMARK   59  A    between atoms: _151  and  _152
REMARK   60  A    between atoms: _151  and  _154
REMARK   61  A    between atoms: _154  and  _155
REMARK   62  A    between atoms: _160  and  _162
REMARK   63  A    between atoms: _162  and  _163
REMARK   64  A    between atoms: _162  and  _165
REMARK   65  A    between atoms: _165  and  _166
REMARK   66  A    between atoms: _169  and  _171
REMARK   67  A    between atoms: _171  and  _172
REMARK   68  A    between atoms: _171  and  _174
REMARK   69  A    between atoms: _174  and  _175
REMARK   70  A    between atoms: _175  and  _176
REMARK   71  A    between atoms: _176  and  _177
REMARK   72  A    between atoms: _177  and  _178
REMARK   73  A    between atoms: _182  and  _184
REMARK   74  A    between atoms: _184  and  _185
REMARK   75  A    between atoms: _184  and  _187
REMARK   76  A    between atoms: _187  and  _188
REMARK   77  A    between atoms: _198  and  _200
REMARK   78  A    between atoms: _200  and  _201
REMARK   79  A    between atoms: _203  and  _205
REMARK   80  A    between atoms: _205  and  _206
REMARK   81  A    between atoms: _205  and  _208
REMARK   82  A    between atoms: _208  and  _209
REMARK   83  A    between atoms: _209  and  _210
REMARK   84  A    between atoms: _210  and  _211
REMARK   85  A    between atoms: _220  and  _222
REMARK   86  A    between atoms: _222  and  _223
REMARK   87  A    between atoms: _222  and  _225
REMARK   88  A    between atoms: _225  and  _226
REMARK   89  A    between atoms: _226  and  _227
REMARK   90  A    between atoms: _230  and  _232
REMARK   91  A    between atoms: _232  and  _233
REMARK   92  A    between atoms: _232  and  _235
REMARK   93  A    between atoms: _235  and  _236
REMARK   94  A    between atoms: _236  and  _237
REMARK   95  A    between atoms: _240  and  _242
REMARK   96  A    between atoms: _242  and  _243
REMARK   97  A    between atoms: _242  and  _245
REMARK   98  A    between atoms: _245  and  _246
REMARK   99  A    between atoms: _246  and  _247
REMARK  100  A    between atoms: _247  and  _248
REMARK  101  A    between atoms: _257  and  _259
REMARK  102  A    between atoms: _259  and  _260
REMARK  103  A    between atoms: _259  and  _262
REMARK  104  A    between atoms: _262  and  _263
REMARK  105  A    between atoms: _263  and  _264
REMARK  106  A    between atoms: _264  and  _265
REMARK  107  A    between atoms: _274  and  _276
REMARK  108  A    between atoms: _276  and  _277
REMARK  109  A    between atoms: _276  and  _279
REMARK  110  A    between atoms: _279  and  _280
REMARK  111  A    between atoms: _282  and  _284
REMARK  112  A    between atoms: _284  and  _285
REMARK                            x       y       z     vdW  Elec       q    Type
REMARK                         _______ _______ _______ _____ _____    ______ ____
ROOT
ATOM      1  O   HOH     1       9.998  -7.319  -0.284  0.00  0.00    +0.000 OA
ENDROOT
TORSDOF 0
REMARK  Name = ../refined-set-2016/3t1l/3t1l_pocket.pdb
REMARK  112 active torsions:
REMARK  status: ('A' for Active; 'I' for Inactive)
REMARK    1  A    between atoms: _1  and  _3
REMARK    2  A    between atoms: _3  and  _4
REMARK    3  A    between atoms: _3  and  _6
REMARK    4  A    between atoms: _6  and  _7
REMARK    5  A    between atoms: _12  and  _14
REMARK    6  A    between atoms: _14  and  _15
REMARK    7  A    between atoms: _14  and  _17
REMARK    8  A    between atoms: _17  and  _18
REMARK    9  A    between atoms: _18  and  _19
REMARK   10  A    between atoms: _19  and  _20
REMARK   11  A    between atoms: _29  and  _31
REMARK   12  A    between atoms: _31  and  _32
REMARK   13  A    between atoms: _31  and  _34
REMARK   14  A    between atoms: _34  and  _35
REMARK   15  A    between atoms: _38  and  _40
REMARK   16  A    between atoms: _40  and  _41
REMARK   17  A    between atoms: _44  and  _46
REMARK   18  A    between atoms: _46  and  _47
REMARK   19  A    between atoms: _46  and  _49
REMARK   20  A    between atoms: _49  and  _50
REMARK   21  A    between atoms: _53  and  _55
REMARK   22  A    between atoms: _55  and  _56
REMARK   23  A    between atoms: _55  and  _58
REMARK   24  A    between atoms: _58  and  _59
REMARK   25  A    between atoms: _59  and  _60
REMARK   26  A    between atoms: _65  and  _67
REMARK   27  A    between atoms: _67  and  _68
REMARK   28  A    between atoms: _67  and  _70
REMARK   29  A    between atoms: _73  and  _75
REMARK   30  A    between atoms: _75  and  _76
REMARK   31  A    between atoms: _75  and  _78
REMARK   32  A    between atoms: _78  and  _79
REMARK   33  A    between atoms: _84  and  _86
REMARK   34  A    between atoms: _86  and  _87
REMARK   35  A    between atoms: _86  and  _89
REMARK   36  A    between atoms: _89  and  _90
REMARK   37  A    between atoms: _96  and  _98
REMARK   38  A    between atoms: _98  and  _99
REMARK   39  A    between atoms: _98  and  _101
REMARK   40  A    between atoms: _101  and  _102
REMARK   41  A    between atoms: _107  and  _109
REMARK   42  A    between atoms: _109  and  _110
REMARK   43  A    between atoms: _109  and  _112
REMARK   44  A    between atoms: _112  and  _113
REMARK   45  A    between atoms: _113  and  _114
REMARK   46  A    between atoms: _114  and  _115
REMARK   47  A    between atoms: _124  and  _126
REMARK   48  A    between atoms: _126  and  _127
REMARK   49  A    between atoms: _126  and  _129
REMARK   50  A    between atoms: _129  and  _130
REMARK   51  A    between atoms: _130  and  _131
REMARK   52  A    between atoms: _134  and  _136
REMARK   53  A    between atoms: _136  and  _137
REMARK   54  A    between atoms: _136  and  _139
REMARK   55  A    between atoms: _142  and  _144
REMARK   56  A    between atoms: _144  and  _145
REMARK   57  A    between atoms: _144  and  _147
REMARK   58  A    between atoms: _149  and  _151
REMARK   59  A    between atoms: _151  and  _152
REMARK   60  A    between atoms: _151  and  _154
REMARK   61  A    between atoms: _154  and  _155
REMARK   62  A    between atoms: _160  and  _162
REMARK   63  A    between atoms: _162  and  _163
REMARK   64  A    between atoms: _162  and  _165
REMARK   65  A    between atoms: _165  and  _166
REMARK   66  A    between atoms: _169  and  _171
REMARK   67  A    between atoms: _171  and  _172
REMARK   68  A    between atoms: _171  and  _174
REMARK   69  A    between atoms: _174  and  _175
REMARK   70  A    between atoms: _175  and  _176
REMARK   71  A    between atoms: _176  and  _177
REMARK   72  A    between atoms: _177  and  _178
REMARK   73  A    between atoms: _182  and  _184
REMARK   74  A    between atoms: _184  and  _185
REMARK   75  A    between atoms: _184  and  _187
REMARK   76  A    between atoms: _187  and  _188
REMARK   77  A    between atoms: _198  and  _200
REMARK   78  A    between atoms: _200  and  _201
REMARK   79  A    between atoms: _203  and  _205
REMARK   80  A    between atoms: _205  and  _206
REMARK   81  A    between atoms: _205  and  _208
REMARK   82  A    between atoms: _208  and  _209
REMARK   83  A    between atoms: _209  and  _210
REMARK   84  A    between atoms: _210  and  _211
REMARK   85  A    between atoms: _220  and  _222
REMARK   86  A    between atoms: _222  and  _223
REMARK   87  A    between atoms: _222  and  _225
REMARK   88  A    between atoms: _225  and  _226
REMARK   89  A    between atoms: _226  and  _227
REMARK   90  A    between atoms: _230  and  _232
REMARK   91  A    between atoms: _232  and  _233
REMARK   92  A    between atoms: _232  and  _235
REMARK   93  A    between atoms: _235  and  _236
REMARK   94  A    between atoms: _236  and  _237
REMARK   95  A    between atoms: _240  and  _242
REMARK   96  A    between atoms: _242  and  _243
REMARK   97  A    between atoms: _242  and  _245
REMARK   98  A    between atoms: _245  and  _246
REMARK   99  A    between atoms: _246  and  _247
REMARK  100  A    between atoms: _247  and  _248
REMARK  101  A    between atoms: _257  and  _259
REMARK  102  A    between atoms: _259  and  _260
REMARK  103  A    between atoms: _259  and  _262
REMARK  104  A    between atoms: _262  and  _263
REMARK  105  A    between atoms: _263  and  _264
REMARK  106  A    between atoms: _264  and  _265
REMARK  107  A    between atoms: _274  and  _276
REMARK  108  A    between atoms: _276  and  _277
REMARK  109  A    between atoms: _276  and  _279
REMARK  110  A    between atoms: _279  and  _280
REMARK  111  A    between atoms: _282  and  _284
REMARK  112  A    between atoms: _284  and  _285
REMARK                            x       y       z     vdW  Elec       q    Type
REMARK                         _______ _______ _______ _____ _____    ______ ____
ROOT
ATOM      1  O   HOH     1       7.198  -6.885  -2.171  0.00  0.00    +0.000 OA
ENDROOT
TORSDOF 0
REMARK  Name = ../refined-set-2016/3t1l/3t1l_pocket.pdb
REMARK  112 active torsions:
REMARK  status: ('A' for Active; 'I' for Inactive)
REMARK    1  A    between atoms: _1  and  _3
REMARK    2  A    between atoms: _3  and  _4
REMARK    3  A    between atoms: _3  and  _6
REMARK    4  A    between atoms: _6  and  _7
REMARK    5  A    between atoms: _12  and  _14
REMARK    6  A    between atoms: _14  and  _15
REMARK    7  A    between atoms: _14  and  _17
REMARK    8  A    between atoms: _17  and  _18
REMARK    9  A    between atoms: _18  and  _19
REMARK   10  A    between atoms: _19  and  _20
REMARK   11  A    between atoms: _29  and  _31
REMARK   12  A    between atoms: _31  and  _32
REMARK   13  A    between atoms: _31  and  _34
REMARK   14  A    between atoms: _34  and  _35
REMARK   15  A    between atoms: _38  and  _40
REMARK   16  A    between atoms: _40  and  _41
REMARK   17  A    between atoms: _44  and  _46
REMARK   18  A    between atoms: _46  and  _47
REMARK   19  A    between atoms: _46  and  _49
REMARK   20  A    between atoms: _49  and  _50
REMARK   21  A    between atoms: _53  and  _55
REMARK   22  A    between atoms: _55  and  _56
REMARK   23  A    between atoms: _55  and  _58
REMARK   24  A    between atoms: _58  and  _59
REMARK   25  A    between atoms: _59  and  _60
REMARK   26  A    between atoms: _65  and  _67
REMARK   27  A    between atoms: _67  and  _68
REMARK   28  A    between atoms: _67  and  _70
REMARK   29  A    between atoms: _73  and  _75
REMARK   30  A    between atoms: _75  and  _76
REMARK   31  A    between atoms: _75  and  _78
REMARK   32  A    between atoms: _78  and  _79
REMARK   33  A    between atoms: _84  and  _86
REMARK   34  A    between atoms: _86  and  _87
REMARK   35  A    between atoms: _86  and  _89
REMARK   36  A    between atoms: _89  and  _90
REMARK   37  A    between atoms: _96  and  _98
REMARK   38  A    between atoms: _98  and  _99
REMARK   39  A    between atoms: _98  and  _101
REMARK   40  A    between atoms: _101  and  _102
REMARK   41  A    between atoms: _107  and  _109
REMARK   42  A    between atoms: _109  and  _110
REMARK   43  A    between atoms: _109  and  _112
REMARK   44  A    between atoms: _112  and  _113
REMARK   45  A    between atoms: _113  and  _114
REMARK   46  A    between atoms: _114  and  _115
REMARK   47  A    between atoms: _124  and  _126
REMARK   48  A    between atoms: _126  and  _127
REMARK   49  A    between atoms: _126  and  _129
REMARK   50  A    between atoms: _129  and  _130
REMARK   51  A    between atoms: _130  and  _131
REMARK   52  A    between atoms: _134  and  _136
REMARK   53  A    between atoms: _136  and  _137
REMARK   54  A    between atoms: _136  and  _139
REMARK   55  A    between atoms: _142  and  _144
REMARK   56  A    between atoms: _144  and  _145
REMARK   57  A    between atoms: _144  and  _147
REMARK   58  A    between atoms: _149  and  _151
REMARK   59  A    between atoms: _151  and  _152
REMARK   60  A    between atoms: _151  and  _154
REMARK   61  A    between atoms: _154  and  _155
REMARK   62  A    between atoms: _160  and  _162
REMARK   63  A    between atoms: _162  and  _163
REMARK   64  A    between atoms: _162  and  _165
REMARK   65  A    between atoms: _165  and  _166
REMARK   66  A    between atoms: _169  and  _171
REMARK   67  A    between atoms: _171  and  _172
REMARK   68  A    between atoms: _171  and  _174
REMARK   69  A    between atoms: _174  and  _175
REMARK   70  A    between atoms: _175  and  _176
REMARK   71  A    between atoms: _176  and  _177
REMARK   72  A    between atoms: _177  and  _178
REMARK   73  A    between atoms: _182  and  _184
REMARK   74  A    between atoms: _184  and  _185
REMARK   75  A    between atoms: _184  and  _187
REMARK   76  A    between atoms: _187  and  _188
REMARK   77  A    between atoms: _198  and  _200
REMARK   78  A    between atoms: _200  and  _201
REMARK   79  A    between atoms: _203  and  _205
REMARK   80  A    between atoms: _205  and  _206
REMARK   81  A    between atoms: _205  and  _208
REMARK   82  A    between atoms: _208  and  _209
REMARK   83  A    between atoms: _209  and  _210
REMARK   84  A    between atoms: _210  and  _211
REMARK   85  A    between atoms: _220  and  _222
REMARK   86  A    between atoms: _222  and  _223
REMARK   87  A    between atoms: _222  and  _225
REMARK   88  A    between atoms: _225  and  _226
REMARK   89  A    between atoms: _226  and  _227
REMARK   90  A    between atoms: _230  and  _232
REMARK   91  A    between atoms: _232  and  _233
REMARK   92  A    between atoms: _232  and  _235
REMARK   93  A    between atoms: _235  and  _236
REMARK   94  A    between atoms: _236  and  _237
REMARK   95  A    between atoms: _240  and  _242
REMARK   96  A    between atoms: _242  and  _243
REMARK   97  A    between atoms: _242  and  _245
REMARK   98  A    between atoms: _245  and  _246
REMARK   99  A    between atoms: _246  and  _247
REMARK  100  A    between atoms: _247  and  _248
REMARK  101  A    between atoms: _257  and  _259
REMARK  102  A    between atoms: _259  and  _260
REMARK  103  A    between atoms: _259  and  _262
REMARK  104  A    between atoms: _262  and  _263
REMARK  105  A    between atoms: _263  and  _264
REMARK  106  A    between atoms: _264  and  _265
REMARK  107  A    between atoms: _274  and  _276
REMARK  108  A    between atoms: _276  and  _277
REMARK  109  A    between atoms: _276  and  _279
REMARK  110  A    between atoms: _279  and  _280
REMARK  111  A    between atoms: _282  and  _284
REMARK  112  A    between atoms: _284  and  _285
REMARK                            x       y       z     vdW  Elec       q    Type
REMARK                         _______ _______ _______ _____ _____    ______ ____
ROOT
ATOM      1  O   HOH     1      10.888  -2.543  -5.320  0.00  0.00    +0.000 OA
ENDROOT
TORSDOF 0
REMARK  Name = ../refined-set-2016/3t1l/3t1l_pocket.pdb
REMARK  112 active torsions:
REMARK  status: ('A' for Active; 'I' for Inactive)
REMARK    1  A    between atoms: _1  and  _3
REMARK    2  A    between atoms: _3  and  _4
REMARK    3  A    between atoms: _3  and  _6
REMARK    4  A    between atoms: _6  and  _7
REMARK    5  A    between atoms: _12  and  _14
REMARK    6  A    between atoms: _14  and  _15
REMARK    7  A    between atoms: _14  and  _17
REMARK    8  A    between atoms: _17  and  _18
REMARK    9  A    between atoms: _18  and  _19
REMARK   10  A    between atoms: _19  and  _20
REMARK   11  A    between atoms: _29  and  _31
REMARK   12  A    between atoms: _31  and  _32
REMARK   13  A    between atoms: _31  and  _34
REMARK   14  A    between atoms: _34  and  _35
REMARK   15  A    between atoms: _38  and  _40
REMARK   16  A    between atoms: _40  and  _41
REMARK   17  A    between atoms: _44  and  _46
REMARK   18  A    between atoms: _46  and  _47
REMARK   19  A    between atoms: _46  and  _49
REMARK   20  A    between atoms: _49  and  _50
REMARK   21  A    between atoms: _53  and  _55
REMARK   22  A    between atoms: _55  and  _56
REMARK   23  A    between atoms: _55  and  _58
REMARK   24  A    between atoms: _58  and  _59
REMARK   25  A    between atoms: _59  and  _60
REMARK   26  A    between atoms: _65  and  _67
REMARK   27  A    between atoms: _67  and  _68
REMARK   28  A    between atoms: _67  and  _70
REMARK   29  A    between atoms: _73  and  _75
REMARK   30  A    between atoms: _75  and  _76
REMARK   31  A    between atoms: _75  and  _78
REMARK   32  A    between atoms: _78  and  _79
REMARK   33  A    between atoms: _84  and  _86
REMARK   34  A    between atoms: _86  and  _87
REMARK   35  A    between atoms: _86  and  _89
REMARK   36  A    between atoms: _89  and  _90
REMARK   37  A    between atoms: _96  and  _98
REMARK   38  A    between atoms: _98  and  _99
REMARK   39  A    between atoms: _98  and  _101
REMARK   40  A    between atoms: _101  and  _102
REMARK   41  A    between atoms: _107  and  _109
REMARK   42  A    between atoms: _109  and  _110
REMARK   43  A    between atoms: _109  and  _112
REMARK   44  A    between atoms: _112  and  _113
REMARK   45  A    between atoms: _113  and  _114
REMARK   46  A    between atoms: _114  and  _115
REMARK   47  A    between atoms: _124  and  _126
REMARK   48  A    between atoms: _126  and  _127
REMARK   49  A    between atoms: _126  and  _129
REMARK   50  A    between atoms: _129  and  _130
REMARK   51  A    between atoms: _130  and  _131
REMARK   52  A    between atoms: _134  and  _136
REMARK   53  A    between atoms: _136  and  _137
REMARK   54  A    between atoms: _136  and  _139
REMARK   55  A    between atoms: _142  and  _144
REMARK   56  A    between atoms: _144  and  _145
REMARK   57  A    between atoms: _144  and  _147
REMARK   58  A    between atoms: _149  and  _151
REMARK   59  A    between atoms: _151  and  _152
REMARK   60  A    between atoms: _151  and  _154
REMARK   61  A    between atoms: _154  and  _155
REMARK   62  A    between atoms: _160  and  _162
REMARK   63  A    between atoms: _162  and  _163
REMARK   64  A    between atoms: _162  and  _165
REMARK   65  A    between atoms: _165  and  _166
REMARK   66  A    between atoms: _169  and  _171
REMARK   67  A    between atoms: _171  and  _172
REMARK   68  A    between atoms: _171  and  _174
REMARK   69  A    between atoms: _174  and  _175
REMARK   70  A    between atoms: _175  and  _176
REMARK   71  A    between atoms: _176  and  _177
REMARK   72  A    between atoms: _177  and  _178
REMARK   73  A    between atoms: _182  and  _184
REMARK   74  A    between atoms: _184  and  _185
REMARK   75  A    between atoms: _184  and  _187
REMARK   76  A    between atoms: _187  and  _188
REMARK   77  A    between atoms: _198  and  _200
REMARK   78  A    between atoms: _200  and  _201
REMARK   79  A    between atoms: _203  and  _205
REMARK   80  A    between atoms: _205  and  _206
REMARK   81  A    between atoms: _205  and  _208
REMARK   82  A    between atoms: _208  and  _209
REMARK   83  A    between atoms: _209  and  _210
REMARK   84  A    between atoms: _210  and  _211
REMARK   85  A    between atoms: _220  and  _222
REMARK   86  A    between atoms: _222  and  _223
REMARK   87  A    between atoms: _222  and  _225
REMARK   88  A    between atoms: _225  and  _226
REMARK   89  A    between atoms: _226  and  _227
REMARK   90  A    between atoms: _230  and  _232
REMARK   91  A    between atoms: _232  and  _233
REMARK   92  A    between atoms: _232  and  _235
REMARK   93  A    between atoms: _235  and  _236
REMARK   94  A    between atoms: _236  and  _237
REMARK   95  A    between atoms: _240  and  _242
REMARK   96  A    between atoms: _242  and  _243
REMARK   97  A    between atoms: _242  and  _245
REMARK   98  A    between atoms: _245  and  _246
REMARK   99  A    between atoms: _246  and  _247
REMARK  100  A    between atoms: _247  and  _248
REMARK  101  A    between atoms: _257  and  _259
REMARK  102  A    between atoms: _259  and  _260
REMARK  103  A    between atoms: _259  and  _262
REMARK  104  A    between atoms: _262  and  _263
REMARK  105  A    between atoms: _263  and  _264
REMARK  106  A    between atoms: _264  and  _265
REMARK  107  A    between atoms: _274  and  _276
REMARK  108  A    between atoms: _276  and  _277
REMARK  109  A    between atoms: _276  and  _279
REMARK  110  A    between atoms: _279  and  _280
REMARK  111  A    between atoms: _282  and  _284
REMARK  112  A    between atoms: _284  and  _285
REMARK                            x       y       z     vdW  Elec       q    Type
REMARK                         _______ _______ _______ _____ _____    ______ ____
ROOT
ATOM      1  O   HOH     1      13.577  -6.319  -8.732  0.00  0.00    +0.000 OA
ENDROOT
TORSDOF 0
REMARK  Name = ../refined-set-2016/3t1l/3t1l_pocket.pdb
REMARK  112 active torsions:
REMARK  status: ('A' for Active; 'I' for Inactive)
REMARK    1  A    between atoms: _1  and  _3
REMARK    2  A    between atoms: _3  and  _4
REMARK    3  A    between atoms: _3  and  _6
REMARK    4  A    between atoms: _6  and  _7
REMARK    5  A    between atoms: _12  and  _14
REMARK    6  A    between atoms: _14  and  _15
REMARK    7  A    between atoms: _14  and  _17
REMARK    8  A    between atoms: _17  and  _18
REMARK    9  A    between atoms: _18  and  _19
REMARK   10  A    between atoms: _19  and  _20
REMARK   11  A    between atoms: _29  and  _31
REMARK   12  A    between atoms: _31  and  _32
REMARK   13  A    between atoms: _31  and  _34
REMARK   14  A    between atoms: _34  and  _35
REMARK   15  A    between atoms: _38  and  _40
REMARK   16  A    between atoms: _40  and  _41
REMARK   17  A    between atoms: _44  and  _46
REMARK   18  A    between atoms: _46  and  _47
REMARK   19  A    between atoms: _46  and  _49
REMARK   20  A    between atoms: _49  and  _50
REMARK   21  A    between atoms: _53  and  _55
REMARK   22  A    between atoms: _55  and  _56
REMARK   23  A    between atoms: _55  and  _58
REMARK   24  A    between atoms: _58  and  _59
REMARK   25  A    between atoms: _59  and  _60
REMARK   26  A    between atoms: _65  and  _67
REMARK   27  A    between atoms: _67  and  _68
REMARK   28  A    between atoms: _67  and  _70
REMARK   29  A    between atoms: _73  and  _75
REMARK   30  A    between atoms: _75  and  _76
REMARK   31  A    between atoms: _75  and  _78
REMARK   32  A    between atoms: _78  and  _79
REMARK   33  A    between atoms: _84  and  _86
REMARK   34  A    between atoms: _86  and  _87
REMARK   35  A    between atoms: _86  and  _89
REMARK   36  A    between atoms: _89  and  _90
REMARK   37  A    between atoms: _96  and  _98
REMARK   38  A    between atoms: _98  and  _99
REMARK   39  A    between atoms: _98  and  _101
REMARK   40  A    between atoms: _101  and  _102
REMARK   41  A    between atoms: _107  and  _109
REMARK   42  A    between atoms: _109  and  _110
REMARK   43  A    between atoms: _109  and  _112
REMARK   44  A    between atoms: _112  and  _113
REMARK   45  A    between atoms: _113  and  _114
REMARK   46  A    between atoms: _114  and  _115
REMARK   47  A    between atoms: _124  and  _126
REMARK   48  A    between atoms: _126  and  _127
REMARK   49  A    between atoms: _126  and  _129
REMARK   50  A    between atoms: _129  and  _130
REMARK   51  A    between atoms: _130  and  _131
REMARK   52  A    between atoms: _134  and  _136
REMARK   53  A    between atoms: _136  and  _137
REMARK   54  A    between atoms: _136  and  _139
REMARK   55  A    between atoms: _142  and  _144
REMARK   56  A    between atoms: _144  and  _145
REMARK   57  A    between atoms: _144  and  _147
REMARK   58  A    between atoms: _149  and  _151
REMARK   59  A    between atoms: _151  and  _152
REMARK   60  A    between atoms: _151  and  _154
REMARK   61  A    between atoms: _154  and  _155
REMARK   62  A    between atoms: _160  and  _162
REMARK   63  A    between atoms: _162  and  _163
REMARK   64  A    between atoms: _162  and  _165
REMARK   65  A    between atoms: _165  and  _166
REMARK   66  A    between atoms: _169  and  _171
REMARK   67  A    between atoms: _171  and  _172
REMARK   68  A    between atoms: _171  and  _174
REMARK   69  A    between atoms: _174  and  _175
REMARK   70  A    between atoms: _175  and  _176
REMARK   71  A    between atoms: _176  and  _177
REMARK   72  A    between atoms: _177  and  _178
REMARK   73  A    between atoms: _182  and  _184
REMARK   74  A    between atoms: _184  and  _185
REMARK   75  A    between atoms: _184  and  _187
REMARK   76  A    between atoms: _187  and  _188
REMARK   77  A    between atoms: _198  and  _200
REMARK   78  A    between atoms: _200  and  _201
REMARK   79  A    between atoms: _203  and  _205
REMARK   80  A    between atoms: _205  and  _206
REMARK   81  A    between atoms: _205  and  _208
REMARK   82  A    between atoms: _208  and  _209
REMARK   83  A    between atoms: _209  and  _210
REMARK   84  A    between atoms: _210  and  _211
REMARK   85  A    between atoms: _220  and  _222
REMARK   86  A    between atoms: _222  and  _223
REMARK   87  A    between atoms: _222  and  _225
REMARK   88  A    between atoms: _225  and  _226
REMARK   89  A    between atoms: _226  and  _227
REMARK   90  A    between atoms: _230  and  _232
REMARK   91  A    between atoms: _232  and  _233
REMARK   92  A    between atoms: _232  and  _235
REMARK   93  A    between atoms: _235  and  _236
REMARK   94  A    between atoms: _236  and  _237
REMARK   95  A    between atoms: _240  and  _242
REMARK   96  A    between atoms: _242  and  _243
REMARK   97  A    between atoms: _242  and  _245
REMARK   98  A    between atoms: _245  and  _246
REMARK   99  A    between atoms: _246  and  _247
REMARK  100  A    between atoms: _247  and  _248
REMARK  101  A    between atoms: _257  and  _259
REMARK  102  A    between atoms: _259  and  _260
REMARK  103  A    between atoms: _259  and  _262
REMARK  104  A    between atoms: _262  and  _263
REMARK  105  A    between atoms: _263  and  _264
REMARK  106  A    between atoms: _264  and  _265
REMARK  107  A    between atoms: _274  and  _276
REMARK  108  A    between atoms: _276  and  _277
REMARK  109  A    between atoms: _276  and  _279
REMARK  110  A    between atoms: _279  and  _280
REMARK  111  A    between atoms: _282  and  _284
REMARK  112  A    between atoms: _284  and  _285
REMARK                            x       y       z     vdW  Elec       q    Type
REMARK                         _______ _______ _______ _____ _____    ______ ____
ROOT
ATOM      1  O   HOH     1       9.466 -14.053   4.081  0.00  0.00    +0.000 OA
ENDROOT
TORSDOF 0
