REMARK  Name = ../refined-set-2016/1utm/1utm_pocket.pdb
REMARK  110 active torsions:
REMARK  status: ('A' for Active; 'I' for Inactive)
REMARK    1  A    between atoms: _1  and  _3
REMARK    2  A    between atoms: _3  and  _4
REMARK    3  A    between atoms: _3  and  _6
REMARK    4  A    between atoms: _9  and  _11
REMARK    5  A    between atoms: _11  and  _12
REMARK    6  A    between atoms: _11  and  _14
REMARK    7  A    between atoms: _16  and  _18
REMARK    8  A    between atoms: _18  and  _19
REMARK    9  A    between atoms: _18  and  _21
REMARK   10  A    between atoms: _21  and  _22
REMARK   11  A    between atoms: _27  and  _29
REMARK   12  A    between atoms: _29  and  _30
REMARK   13  A    between atoms: _29  and  _32
REMARK   14  A    between atoms: _32  and  _33
REMARK   15  A    between atoms: _36  and  _38
REMARK   16  A    between atoms: _38  and  _39
REMARK   17  A    between atoms: _38  and  _41
REMARK   18  A    between atoms: _41  and  _42
REMARK   19  A    between atoms: _45  and  _47
REMARK   20  A    between atoms: _47  and  _48
REMARK   21  A    between atoms: _47  and  _50
REMARK   22  A    between atoms: _50  and  _51
REMARK   23  A    between atoms: _56  and  _57
REMARK   24  A    between atoms: _59  and  _61
REMARK   25  A    between atoms: _61  and  _62
REMARK   26  A    between atoms: _65  and  _67
REMARK   27  A    between atoms: _67  and  _68
REMARK   28  A    between atoms: _67  and  _70
REMARK   29  A    between atoms: _70  and  _71
REMARK   30  A    between atoms: _71  and  _72
REMARK   31  A    between atoms: _72  and  _73
REMARK   32  A    between atoms: _73  and  _74
REMARK   33  A    between atoms: _78  and  _80
REMARK   34  A    between atoms: _80  and  _81
REMARK   35  A    between atoms: _80  and  _83
REMARK   36  A    between atoms: _83  and  _84
REMARK   37  A    between atoms: _87  and  _89
REMARK   38  A    between atoms: _89  and  _90
REMARK   39  A    between atoms: _89  and  _92
REMARK   40  A    between atoms: _92  and  _93
REMARK   41  A    between atoms: _95  and  _97
REMARK   42  A    between atoms: _97  and  _98
REMARK   43  A    between atoms: _97  and  _100
REMARK   44  A    between atoms: _100  and  _101
REMARK   45  A    between atoms: _101  and  _208
REMARK   46  A    between atoms: _102  and  _104
REMARK   47  A    between atoms: _104  and  _105
REMARK   48  A    between atoms: _104  and  _107
REMARK   49  A    between atoms: _107  and  _108
REMARK   50  A    between atoms: _108  and  _109
REMARK   51  A    between atoms: _114  and  _116
REMARK   52  A    between atoms: _116  and  _117
REMARK   53  A    between atoms: _119  and  _121
REMARK   54  A    between atoms: _121  and  _122
REMARK   55  A    between atoms: _121  and  _124
REMARK   56  A    between atoms: _124  and  _125
REMARK   57  A    between atoms: _128  and  _130
REMARK   58  A    between atoms: _130  and  _131
REMARK   59  A    between atoms: _130  and  _133
REMARK   60  A    between atoms: _133  and  _134
REMARK   61  A    between atoms: _136  and  _138
REMARK   62  A    between atoms: _138  and  _139
REMARK   63  A    between atoms: _141  and  _143
REMARK   64  A    between atoms: _143  and  _144
REMARK   65  A    between atoms: _146  and  _148
REMARK   66  A    between atoms: _148  and  _149
REMARK   67  A    between atoms: _148  and  _151
REMARK   68  A    between atoms: _154  and  _156
REMARK   69  A    between atoms: _156  and  _157
REMARK   70  A    between atoms: _156  and  _159
REMARK   71  A    between atoms: _159  and  _160
REMARK   72  A    between atoms: _162  and  _164
REMARK   73  A    between atoms: _164  and  _165
REMARK   74  A    between atoms: _164  and  _167
REMARK   75  A    between atoms: _167  and  _168
REMARK   76  A    between atoms: _178  and  _180
REMARK   77  A    between atoms: _180  and  _181
REMARK   78  A    between atoms: _183  and  _185
REMARK   79  A    between atoms: _185  and  _186
REMARK   80  A    between atoms: _185  and  _188
REMARK   81  A    between atoms: _188  and  _189
REMARK   82  A    between atoms: _194  and  _195
REMARK   83  A    between atoms: _197  and  _199
REMARK   84  A    between atoms: _199  and  _200
REMARK   85  A    between atoms: _202  and  _204
REMARK   86  A    between atoms: _204  and  _205
REMARK   87  A    between atoms: _204  and  _207
REMARK   88  A    between atoms: _207  and  _208
REMARK   89  A    between atoms: _209  and  _211
REMARK   90  A    between atoms: _211  and  _212
REMARK   91  A    between atoms: _215  and  _217
REMARK   92  A    between atoms: _217  and  _218
REMARK   93  A    between atoms: _217  and  _220
REMARK   94  A    between atoms: _220  and  _221
REMARK   95  A    between atoms: _221  and  _222
REMARK   96  A    between atoms: _225  and  _227
REMARK   97  A    between atoms: _227  and  _228
REMARK   98  A    between atoms: _227  and  _230
REMARK   99  A    between atoms: _230  and  _231
REMARK  100  A    between atoms: _237  and  _238
REMARK  101  A    between atoms: _243  and  _245
REMARK  102  A    between atoms: _245  and  _246
REMARK  103  A    between atoms: _248  and  _250
REMARK  104  A    between atoms: _250  and  _251
REMARK  105  A    between atoms: _250  and  _253
REMARK  106  A    between atoms: _256  and  _258
REMARK  107  A    between atoms: _258  and  _259
REMARK  108  A    between atoms: _258  and  _261
REMARK  109  A    between atoms: _261  and  _262
REMARK  110  A    between atoms: _267  and  _268
REMARK                            x       y       z     vdW  Elec       q    Type
REMARK                         _______ _______ _______ _____ _____    ______ ____
ROOT
ATOM      1  CA  VAL A   1     103.080  77.040 -10.618  0.00  0.00    +0.133 C 
ENDROOT
BRANCH   1   2
ATOM      2  CB  VAL A   1     103.016  78.120 -11.764  0.00  0.00    +0.023 C 
ATOM      3  CG2 VAL A   1     104.346  78.894 -11.882  0.00  0.00    +0.002 C 
ATOM      4  CG1 VAL A   1     102.679  77.468 -13.084  0.00  0.00    +0.002 C 
ENDBRANCH   1   2
BRANCH   1   5
ATOM      5  N   VAL A   1     101.807  76.311 -10.504  0.00  0.00    -0.239 NA
ATOM      6  H   VAL A   1     100.923  76.856 -10.565  0.00  0.00    +0.142 HD
ENDBRANCH   1   5
BRANCH   1   7
ATOM      7  C   VAL A   1     103.419  77.763  -9.302  0.00  0.00    +0.224 C 
ATOM      8  O   VAL A   1     102.576  78.479  -8.744  0.00  0.00    -0.287 OA
ENDBRANCH   1   7
TORSDOF 3
REMARK  Name = ../refined-set-2016/1utm/1utm_pocket.pdb
REMARK  110 active torsions:
REMARK  status: ('A' for Active; 'I' for Inactive)
REMARK    1  A    between atoms: _1  and  _3
REMARK    2  A    between atoms: _3  and  _4
REMARK    3  A    between atoms: _3  and  _6
REMARK    4  A    between atoms: _9  and  _11
REMARK    5  A    between atoms: _11  and  _12
REMARK    6  A    between atoms: _11  and  _14
REMARK    7  A    between atoms: _16  and  _18
REMARK    8  A    between atoms: _18  and  _19
REMARK    9  A    between atoms: _18  and  _21
REMARK   10  A    between atoms: _21  and  _22
REMARK   11  A    between atoms: _27  and  _29
REMARK   12  A    between atoms: _29  and  _30
REMARK   13  A    between atoms: _29  and  _32
REMARK   14  A    between atoms: _32  and  _33
REMARK   15  A    between atoms: _36  and  _38
REMARK   16  A    between atoms: _38  and  _39
REMARK   17  A    between atoms: _38  and  _41
REMARK   18  A    between atoms: _41  and  _42
REMARK   19  A    between atoms: _45  and  _47
REMARK   20  A    between atoms: _47  and  _48
REMARK   21  A    between atoms: _47  and  _50
REMARK   22  A    between atoms: _50  and  _51
REMARK   23  A    between atoms: _56  and  _57
REMARK   24  A    between atoms: _59  and  _61
REMARK   25  A    between atoms: _61  and  _62
REMARK   26  A    between atoms: _65  and  _67
REMARK   27  A    between atoms: _67  and  _68
REMARK   28  A    between atoms: _67  and  _70
REMARK   29  A    between atoms: _70  and  _71
REMARK   30  A    between atoms: _71  and  _72
REMARK   31  A    between atoms: _72  and  _73
REMARK   32  A    between atoms: _73  and  _74
REMARK   33  A    between atoms: _78  and  _80
REMARK   34  A    between atoms: _80  and  _81
REMARK   35  A    between atoms: _80  and  _83
REMARK   36  A    between atoms: _83  and  _84
REMARK   37  A    between atoms: _87  and  _89
REMARK   38  A    between atoms: _89  and  _90
REMARK   39  A    between atoms: _89  and  _92
REMARK   40  A    between atoms: _92  and  _93
REMARK   41  A    between atoms: _95  and  _97
REMARK   42  A    between atoms: _97  and  _98
REMARK   43  A    between atoms: _97  and  _100
REMARK   44  A    between atoms: _100  and  _101
REMARK   45  A    between atoms: _101  and  _208
REMARK   46  A    between atoms: _102  and  _104
REMARK   47  A    between atoms: _104  and  _105
REMARK   48  A    between atoms: _104  and  _107
REMARK   49  A    between atoms: _107  and  _108
REMARK   50  A    between atoms: _108  and  _109
REMARK   51  A    between atoms: _114  and  _116
REMARK   52  A    between atoms: _116  and  _117
REMARK   53  A    between atoms: _119  and  _121
REMARK   54  A    between atoms: _121  and  _122
REMARK   55  A    between atoms: _121  and  _124
REMARK   56  A    between atoms: _124  and  _125
REMARK   57  A    between atoms: _128  and  _130
REMARK   58  A    between atoms: _130  and  _131
REMARK   59  A    between atoms: _130  and  _133
REMARK   60  A    between atoms: _133  and  _134
REMARK   61  A    between atoms: _136  and  _138
REMARK   62  A    between atoms: _138  and  _139
REMARK   63  A    between atoms: _141  and  _143
REMARK   64  A    between atoms: _143  and  _144
REMARK   65  A    between atoms: _146  and  _148
REMARK   66  A    between atoms: _148  and  _149
REMARK   67  A    between atoms: _148  and  _151
REMARK   68  A    between atoms: _154  and  _156
REMARK   69  A    between atoms: _156  and  _157
REMARK   70  A    between atoms: _156  and  _159
REMARK   71  A    between atoms: _159  and  _160
REMARK   72  A    between atoms: _162  and  _164
REMARK   73  A    between atoms: _164  and  _165
REMARK   74  A    between atoms: _164  and  _167
REMARK   75  A    between atoms: _167  and  _168
REMARK   76  A    between atoms: _178  and  _180
REMARK   77  A    between atoms: _180  and  _181
REMARK   78  A    between atoms: _183  and  _185
REMARK   79  A    between atoms: _185  and  _186
REMARK   80  A    between atoms: _185  and  _188
REMARK   81  A    between atoms: _188  and  _189
REMARK   82  A    between atoms: _194  and  _195
REMARK   83  A    between atoms: _197  and  _199
REMARK   84  A    between atoms: _199  and  _200
REMARK   85  A    between atoms: _202  and  _204
REMARK   86  A    between atoms: _204  and  _205
REMARK   87  A    between atoms: _204  and  _207
REMARK   88  A    between atoms: _207  and  _208
REMARK   89  A    between atoms: _209  and  _211
REMARK   90  A    between atoms: _211  and  _212
REMARK   91  A    between atoms: _215  and  _217
REMARK   92  A    between atoms: _217  and  _218
REMARK   93  A    between atoms: _217  and  _220
REMARK   94  A    between atoms: _220  and  _221
REMARK   95  A    between atoms: _221  and  _222
REMARK   96  A    between atoms: _225  and  _227
REMARK   97  A    between atoms: _227  and  _228
REMARK   98  A    between atoms: _227  and  _230
REMARK   99  A    between atoms: _230  and  _231
REMARK  100  A    between atoms: _237  and  _238
REMARK  101  A    between atoms: _243  and  _245
REMARK  102  A    between atoms: _245  and  _246
REMARK  103  A    between atoms: _248  and  _250
REMARK  104  A    between atoms: _250  and  _251
REMARK  105  A    between atoms: _250  and  _253
REMARK  106  A    between atoms: _256  and  _258
REMARK  107  A    between atoms: _258  and  _259
REMARK  108  A    between atoms: _258  and  _261
REMARK  109  A    between atoms: _261  and  _262
REMARK  110  A    between atoms: _267  and  _268
REMARK                            x       y       z     vdW  Elec       q    Type
REMARK                         _______ _______ _______ _____ _____    ______ ____
ROOT
ATOM      1  CA  CYS A   1      91.023  67.592 -15.693  0.00  0.00    +0.145 C 
ENDROOT
BRANCH   1   2
ATOM      2  N   CYS A   1      91.638  66.567 -16.565  0.00  0.00    -0.238 NA
ATOM      3  H   CYS A   1      91.658  65.580 -16.239  0.00  0.00    +0.142 HD
ENDBRANCH   1   2
BRANCH   1   4
ATOM      4  C   CYS A   1      90.910  67.072 -14.247  0.00  0.00    +0.225 C 
ATOM      5  O   CYS A   1      91.058  65.863 -14.000  0.00  0.00    -0.287 OA
ENDBRANCH   1   4
BRANCH   1   6
ATOM      6  CB  CYS A   1      89.598  67.969 -16.183  0.00  0.00    +0.094 C 
ATOM      7  SG  CYS A   1      89.447  69.256 -17.480  0.00  0.00    -0.080 S 
ENDBRANCH   1   6
TORSDOF 3
REMARK  Name = ../refined-set-2016/1utm/1utm_pocket.pdb
REMARK  110 active torsions:
REMARK  status: ('A' for Active; 'I' for Inactive)
REMARK    1  A    between atoms: _1  and  _3
REMARK    2  A    between atoms: _3  and  _4
REMARK    3  A    between atoms: _3  and  _6
REMARK    4  A    between atoms: _9  and  _11
REMARK    5  A    between atoms: _11  and  _12
REMARK    6  A    between atoms: _11  and  _14
REMARK    7  A    between atoms: _16  and  _18
REMARK    8  A    between atoms: _18  and  _19
REMARK    9  A    between atoms: _18  and  _21
REMARK   10  A    between atoms: _21  and  _22
REMARK   11  A    between atoms: _27  and  _29
REMARK   12  A    between atoms: _29  and  _30
REMARK   13  A    between atoms: _29  and  _32
REMARK   14  A    between atoms: _32  and  _33
REMARK   15  A    between atoms: _36  and  _38
REMARK   16  A    between atoms: _38  and  _39
REMARK   17  A    between atoms: _38  and  _41
REMARK   18  A    between atoms: _41  and  _42
REMARK   19  A    between atoms: _45  and  _47
REMARK   20  A    between atoms: _47  and  _48
REMARK   21  A    between atoms: _47  and  _50
REMARK   22  A    between atoms: _50  and  _51
REMARK   23  A    between atoms: _56  and  _57
REMARK   24  A    between atoms: _59  and  _61
REMARK   25  A    between atoms: _61  and  _62
REMARK   26  A    between atoms: _65  and  _67
REMARK   27  A    between atoms: _67  and  _68
REMARK   28  A    between atoms: _67  and  _70
REMARK   29  A    between atoms: _70  and  _71
REMARK   30  A    between atoms: _71  and  _72
REMARK   31  A    between atoms: _72  and  _73
REMARK   32  A    between atoms: _73  and  _74
REMARK   33  A    between atoms: _78  and  _80
REMARK   34  A    between atoms: _80  and  _81
REMARK   35  A    between atoms: _80  and  _83
REMARK   36  A    between atoms: _83  and  _84
REMARK   37  A    between atoms: _87  and  _89
REMARK   38  A    between atoms: _89  and  _90
REMARK   39  A    between atoms: _89  and  _92
REMARK   40  A    between atoms: _92  and  _93
REMARK   41  A    between atoms: _95  and  _97
REMARK   42  A    between atoms: _97  and  _98
REMARK   43  A    between atoms: _97  and  _100
REMARK   44  A    between atoms: _100  and  _101
REMARK   45  A    between atoms: _101  and  _208
REMARK   46  A    between atoms: _102  and  _104
REMARK   47  A    between atoms: _104  and  _105
REMARK   48  A    between atoms: _104  and  _107
REMARK   49  A    between atoms: _107  and  _108
REMARK   50  A    between atoms: _108  and  _109
REMARK   51  A    between atoms: _114  and  _116
REMARK   52  A    between atoms: _116  and  _117
REMARK   53  A    between atoms: _119  and  _121
REMARK   54  A    between atoms: _121  and  _122
REMARK   55  A    between atoms: _121  and  _124
REMARK   56  A    between atoms: _124  and  _125
REMARK   57  A    between atoms: _128  and  _130
REMARK   58  A    between atoms: _130  and  _131
REMARK   59  A    between atoms: _130  and  _133
REMARK   60  A    between atoms: _133  and  _134
REMARK   61  A    between atoms: _136  and  _138
REMARK   62  A    between atoms: _138  and  _139
REMARK   63  A    between atoms: _141  and  _143
REMARK   64  A    between atoms: _143  and  _144
REMARK   65  A    between atoms: _146  and  _148
REMARK   66  A    between atoms: _148  and  _149
REMARK   67  A    between atoms: _148  and  _151
REMARK   68  A    between atoms: _154  and  _156
REMARK   69  A    between atoms: _156  and  _157
REMARK   70  A    between atoms: _156  and  _159
REMARK   71  A    between atoms: _159  and  _160
REMARK   72  A    between atoms: _162  and  _164
REMARK   73  A    between atoms: _164  and  _165
REMARK   74  A    between atoms: _164  and  _167
REMARK   75  A    between atoms: _167  and  _168
REMARK   76  A    between atoms: _178  and  _180
REMARK   77  A    between atoms: _180  and  _181
REMARK   78  A    between atoms: _183  and  _185
REMARK   79  A    between atoms: _185  and  _186
REMARK   80  A    between atoms: _185  and  _188
REMARK   81  A    between atoms: _188  and  _189
REMARK   82  A    between atoms: _194  and  _195
REMARK   83  A    between atoms: _197  and  _199
REMARK   84  A    between atoms: _199  and  _200
REMARK   85  A    between atoms: _202  and  _204
REMARK   86  A    between atoms: _204  and  _205
REMARK   87  A    between atoms: _204  and  _207
REMARK   88  A    between atoms: _207  and  _208
REMARK   89  A    between atoms: _209  and  _211
REMARK   90  A    between atoms: _211  and  _212
REMARK   91  A    between atoms: _215  and  _217
REMARK   92  A    between atoms: _217  and  _218
REMARK   93  A    between atoms: _217  and  _220
REMARK   94  A    between atoms: _220  and  _221
REMARK   95  A    between atoms: _221  and  _222
REMARK   96  A    between atoms: _225  and  _227
REMARK   97  A    between atoms: _227  and  _228
REMARK   98  A    between atoms: _227  and  _230
REMARK   99  A    between atoms: _230  and  _231
REMARK  100  A    between atoms: _237  and  _238
REMARK  101  A    between atoms: _243  and  _245
REMARK  102  A    between atoms: _245  and  _246
REMARK  103  A    between atoms: _248  and  _250
REMARK  104  A    between atoms: _250  and  _251
REMARK  105  A    between atoms: _250  and  _253
REMARK  106  A    between atoms: _256  and  _258
REMARK  107  A    between atoms: _258  and  _259
REMARK  108  A    between atoms: _258  and  _261
REMARK  109  A    between atoms: _261  and  _262
REMARK  110  A    between atoms: _267  and  _268
REMARK                            x       y       z     vdW  Elec       q    Type
REMARK                         _______ _______ _______ _____ _____    ______ ____
ROOT
ATOM      1  CB  HIS A   1      85.576  74.435 -20.213  0.00  0.00    +0.072 C 
ENDROOT
BRANCH   1   2
ATOM      2  CG  HIS A   1      86.810  74.409 -19.353  0.00  0.00    +0.082 A 
ATOM      3  ND1 HIS A   1      86.923  75.136 -18.184  0.00  0.00    -0.227 NA
ATOM      4  CE1 HIS A   1      88.137  74.989 -17.684  0.00  0.00    +0.199 A 
ATOM      5  NE2 HIS A   1      88.818  74.192 -18.486  0.00  0.00    -0.221 NA
ATOM      6  CD2 HIS A   1      88.013  73.812 -19.534  0.00  0.00    +0.115 A 
ENDBRANCH   1   2
BRANCH   1   7
ATOM      7  CA  HIS A   1      84.662  73.176 -20.104  0.00  0.00    +0.139 C 
BRANCH   7   8
ATOM      8  N   HIS A   1      83.746  73.253 -18.970  0.00  0.00    -0.239 NA
ATOM      9  H   HIS A   1      83.967  73.877 -18.168  0.00  0.00    +0.142 HD
ENDBRANCH   7   8
BRANCH   7  10
ATOM     10  C   HIS A   1      85.441  71.854 -20.185  0.00  0.00    +0.224 C 
ATOM     11  O   HIS A   1      86.133  71.607 -21.169  0.00  0.00    -0.287 OA
ENDBRANCH   7  10
ENDBRANCH   1   7
TORSDOF 4
REMARK  Name = ../refined-set-2016/1utm/1utm_pocket.pdb
REMARK  110 active torsions:
REMARK  status: ('A' for Active; 'I' for Inactive)
REMARK    1  A    between atoms: _1  and  _3
REMARK    2  A    between atoms: _3  and  _4
REMARK    3  A    between atoms: _3  and  _6
REMARK    4  A    between atoms: _9  and  _11
REMARK    5  A    between atoms: _11  and  _12
REMARK    6  A    between atoms: _11  and  _14
REMARK    7  A    between atoms: _16  and  _18
REMARK    8  A    between atoms: _18  and  _19
REMARK    9  A    between atoms: _18  and  _21
REMARK   10  A    between atoms: _21  and  _22
REMARK   11  A    between atoms: _27  and  _29
REMARK   12  A    between atoms: _29  and  _30
REMARK   13  A    between atoms: _29  and  _32
REMARK   14  A    between atoms: _32  and  _33
REMARK   15  A    between atoms: _36  and  _38
REMARK   16  A    between atoms: _38  and  _39
REMARK   17  A    between atoms: _38  and  _41
REMARK   18  A    between atoms: _41  and  _42
REMARK   19  A    between atoms: _45  and  _47
REMARK   20  A    between atoms: _47  and  _48
REMARK   21  A    between atoms: _47  and  _50
REMARK   22  A    between atoms: _50  and  _51
REMARK   23  A    between atoms: _56  and  _57
REMARK   24  A    between atoms: _59  and  _61
REMARK   25  A    between atoms: _61  and  _62
REMARK   26  A    between atoms: _65  and  _67
REMARK   27  A    between atoms: _67  and  _68
REMARK   28  A    between atoms: _67  and  _70
REMARK   29  A    between atoms: _70  and  _71
REMARK   30  A    between atoms: _71  and  _72
REMARK   31  A    between atoms: _72  and  _73
REMARK   32  A    between atoms: _73  and  _74
REMARK   33  A    between atoms: _78  and  _80
REMARK   34  A    between atoms: _80  and  _81
REMARK   35  A    between atoms: _80  and  _83
REMARK   36  A    between atoms: _83  and  _84
REMARK   37  A    between atoms: _87  and  _89
REMARK   38  A    between atoms: _89  and  _90
REMARK   39  A    between atoms: _89  and  _92
REMARK   40  A    between atoms: _92  and  _93
REMARK   41  A    between atoms: _95  and  _97
REMARK   42  A    between atoms: _97  and  _98
REMARK   43  A    between atoms: _97  and  _100
REMARK   44  A    between atoms: _100  and  _101
REMARK   45  A    between atoms: _101  and  _208
REMARK   46  A    between atoms: _102  and  _104
REMARK   47  A    between atoms: _104  and  _105
REMARK   48  A    between atoms: _104  and  _107
REMARK   49  A    between atoms: _107  and  _108
REMARK   50  A    between atoms: _108  and  _109
REMARK   51  A    between atoms: _114  and  _116
REMARK   52  A    between atoms: _116  and  _117
REMARK   53  A    between atoms: _119  and  _121
REMARK   54  A    between atoms: _121  and  _122
REMARK   55  A    between atoms: _121  and  _124
REMARK   56  A    between atoms: _124  and  _125
REMARK   57  A    between atoms: _128  and  _130
REMARK   58  A    between atoms: _130  and  _131
REMARK   59  A    between atoms: _130  and  _133
REMARK   60  A    between atoms: _133  and  _134
REMARK   61  A    between atoms: _136  and  _138
REMARK   62  A    between atoms: _138  and  _139
REMARK   63  A    between atoms: _141  and  _143
REMARK   64  A    between atoms: _143  and  _144
REMARK   65  A    between atoms: _146  and  _148
REMARK   66  A    between atoms: _148  and  _149
REMARK   67  A    between atoms: _148  and  _151
REMARK   68  A    between atoms: _154  and  _156
REMARK   69  A    between atoms: _156  and  _157
REMARK   70  A    between atoms: _156  and  _159
REMARK   71  A    between atoms: _159  and  _160
REMARK   72  A    between atoms: _162  and  _164
REMARK   73  A    between atoms: _164  and  _165
REMARK   74  A    between atoms: _164  and  _167
REMARK   75  A    between atoms: _167  and  _168
REMARK   76  A    between atoms: _178  and  _180
REMARK   77  A    between atoms: _180  and  _181
REMARK   78  A    between atoms: _183  and  _185
REMARK   79  A    between atoms: _185  and  _186
REMARK   80  A    between atoms: _185  and  _188
REMARK   81  A    between atoms: _188  and  _189
REMARK   82  A    between atoms: _194  and  _195
REMARK   83  A    between atoms: _197  and  _199
REMARK   84  A    between atoms: _199  and  _200
REMARK   85  A    between atoms: _202  and  _204
REMARK   86  A    between atoms: _204  and  _205
REMARK   87  A    between atoms: _204  and  _207
REMARK   88  A    between atoms: _207  and  _208
REMARK   89  A    between atoms: _209  and  _211
REMARK   90  A    between atoms: _211  and  _212
REMARK   91  A    between atoms: _215  and  _217
REMARK   92  A    between atoms: _217  and  _218
REMARK   93  A    between atoms: _217  and  _220
REMARK   94  A    between atoms: _220  and  _221
REMARK   95  A    between atoms: _221  and  _222
REMARK   96  A    between atoms: _225  and  _227
REMARK   97  A    between atoms: _227  and  _228
REMARK   98  A    between atoms: _227  and  _230
REMARK   99  A    between atoms: _230  and  _231
REMARK  100  A    between atoms: _237  and  _238
REMARK  101  A    between atoms: _243  and  _245
REMARK  102  A    between atoms: _245  and  _246
REMARK  103  A    between atoms: _248  and  _250
REMARK  104  A    between atoms: _250  and  _251
REMARK  105  A    between atoms: _250  and  _253
REMARK  106  A    between atoms: _256  and  _258
REMARK  107  A    between atoms: _258  and  _259
REMARK  108  A    between atoms: _258  and  _261
REMARK  109  A    between atoms: _261  and  _262
REMARK  110  A    between atoms: _267  and  _268
REMARK                            x       y       z     vdW  Elec       q    Type
REMARK                         _______ _______ _______ _____ _____    ______ ____
ROOT
ATOM      1  CA  ILE A   1      83.316  81.192 -20.247  0.00  0.00    +0.133 C 
ENDROOT
BRANCH   1   2
ATOM      2  N   ILE A   1      83.181  82.372 -21.123  0.00  0.00    -0.239 NA
ATOM      3  H   ILE A   1      82.806  82.232 -22.083  0.00  0.00    +0.142 HD
ENDBRANCH   1   2
BRANCH   1   4
ATOM      4  C   ILE A   1      82.480  81.356 -18.954  0.00  0.00    +0.224 C 
ATOM      5  O   ILE A   1      82.945  81.071 -17.845  0.00  0.00    -0.287 OA
ENDBRANCH   1   4
BRANCH   1   6
ATOM      6  CB  ILE A   1      84.809  80.910 -19.938  0.00  0.00    +0.023 C 
ATOM      7  CG2 ILE A   1      84.995  79.475 -19.437  0.00  0.00    +0.002 C 
BRANCH   6   8
ATOM      8  CG1 ILE A   1      85.621  81.065 -21.227  0.00  0.00    +0.002 C 
ATOM      9  CD1 ILE A   1      87.099  81.048 -21.022  0.00  0.00    +0.000 C 
ENDBRANCH   6   8
ENDBRANCH   1   6
TORSDOF 4
REMARK  Name = ../refined-set-2016/1utm/1utm_pocket.pdb
REMARK  110 active torsions:
REMARK  status: ('A' for Active; 'I' for Inactive)
REMARK    1  A    between atoms: _1  and  _3
REMARK    2  A    between atoms: _3  and  _4
REMARK    3  A    between atoms: _3  and  _6
REMARK    4  A    between atoms: _9  and  _11
REMARK    5  A    between atoms: _11  and  _12
REMARK    6  A    between atoms: _11  and  _14
REMARK    7  A    between atoms: _16  and  _18
REMARK    8  A    between atoms: _18  and  _19
REMARK    9  A    between atoms: _18  and  _21
REMARK   10  A    between atoms: _21  and  _22
REMARK   11  A    between atoms: _27  and  _29
REMARK   12  A    between atoms: _29  and  _30
REMARK   13  A    between atoms: _29  and  _32
REMARK   14  A    between atoms: _32  and  _33
REMARK   15  A    between atoms: _36  and  _38
REMARK   16  A    between atoms: _38  and  _39
REMARK   17  A    between atoms: _38  and  _41
REMARK   18  A    between atoms: _41  and  _42
REMARK   19  A    between atoms: _45  and  _47
REMARK   20  A    between atoms: _47  and  _48
REMARK   21  A    between atoms: _47  and  _50
REMARK   22  A    between atoms: _50  and  _51
REMARK   23  A    between atoms: _56  and  _57
REMARK   24  A    between atoms: _59  and  _61
REMARK   25  A    between atoms: _61  and  _62
REMARK   26  A    between atoms: _65  and  _67
REMARK   27  A    between atoms: _67  and  _68
REMARK   28  A    between atoms: _67  and  _70
REMARK   29  A    between atoms: _70  and  _71
REMARK   30  A    between atoms: _71  and  _72
REMARK   31  A    between atoms: _72  and  _73
REMARK   32  A    between atoms: _73  and  _74
REMARK   33  A    between atoms: _78  and  _80
REMARK   34  A    between atoms: _80  and  _81
REMARK   35  A    between atoms: _80  and  _83
REMARK   36  A    between atoms: _83  and  _84
REMARK   37  A    between atoms: _87  and  _89
REMARK   38  A    between atoms: _89  and  _90
REMARK   39  A    between atoms: _89  and  _92
REMARK   40  A    between atoms: _92  and  _93
REMARK   41  A    between atoms: _95  and  _97
REMARK   42  A    between atoms: _97  and  _98
REMARK   43  A    between atoms: _97  and  _100
REMARK   44  A    between atoms: _100  and  _101
REMARK   45  A    between atoms: _101  and  _208
REMARK   46  A    between atoms: _102  and  _104
REMARK   47  A    between atoms: _104  and  _105
REMARK   48  A    between atoms: _104  and  _107
REMARK   49  A    between atoms: _107  and  _108
REMARK   50  A    between atoms: _108  and  _109
REMARK   51  A    between atoms: _114  and  _116
REMARK   52  A    between atoms: _116  and  _117
REMARK   53  A    between atoms: _119  and  _121
REMARK   54  A    between atoms: _121  and  _122
REMARK   55  A    between atoms: _121  and  _124
REMARK   56  A    between atoms: _124  and  _125
REMARK   57  A    between atoms: _128  and  _130
REMARK   58  A    between atoms: _130  and  _131
REMARK   59  A    between atoms: _130  and  _133
REMARK   60  A    between atoms: _133  and  _134
REMARK   61  A    between atoms: _136  and  _138
REMARK   62  A    between atoms: _138  and  _139
REMARK   63  A    between atoms: _141  and  _143
REMARK   64  A    between atoms: _143  and  _144
REMARK   65  A    between atoms: _146  and  _148
REMARK   66  A    between atoms: _148  and  _149
REMARK   67  A    between atoms: _148  and  _151
REMARK   68  A    between atoms: _154  and  _156
REMARK   69  A    between atoms: _156  and  _157
REMARK   70  A    between atoms: _156  and  _159
REMARK   71  A    between atoms: _159  and  _160
REMARK   72  A    between atoms: _162  and  _164
REMARK   73  A    between atoms: _164  and  _165
REMARK   74  A    between atoms: _164  and  _167
REMARK   75  A    between atoms: _167  and  _168
REMARK   76  A    between atoms: _178  and  _180
REMARK   77  A    between atoms: _180  and  _181
REMARK   78  A    between atoms: _183  and  _185
REMARK   79  A    between atoms: _185  and  _186
REMARK   80  A    between atoms: _185  and  _188
REMARK   81  A    between atoms: _188  and  _189
REMARK   82  A    between atoms: _194  and  _195
REMARK   83  A    between atoms: _197  and  _199
REMARK   84  A    between atoms: _199  and  _200
REMARK   85  A    between atoms: _202  and  _204
REMARK   86  A    between atoms: _204  and  _205
REMARK   87  A    between atoms: _204  and  _207
REMARK   88  A    between atoms: _207  and  _208
REMARK   89  A    between atoms: _209  and  _211
REMARK   90  A    between atoms: _211  and  _212
REMARK   91  A    between atoms: _215  and  _217
REMARK   92  A    between atoms: _217  and  _218
REMARK   93  A    between atoms: _217  and  _220
REMARK   94  A    between atoms: _220  and  _221
REMARK   95  A    between atoms: _221  and  _222
REMARK   96  A    between atoms: _225  and  _227
REMARK   97  A    between atoms: _227  and  _228
REMARK   98  A    between atoms: _227  and  _230
REMARK   99  A    between atoms: _230  and  _231
REMARK  100  A    between atoms: _237  and  _238
REMARK  101  A    between atoms: _243  and  _245
REMARK  102  A    between atoms: _245  and  _246
REMARK  103  A    between atoms: _248  and  _250
REMARK  104  A    between atoms: _250  and  _251
REMARK  105  A    between atoms: _250  and  _253
REMARK  106  A    between atoms: _256  and  _258
REMARK  107  A    between atoms: _258  and  _259
REMARK  108  A    between atoms: _258  and  _261
REMARK  109  A    between atoms: _261  and  _262
REMARK  110  A    between atoms: _267  and  _268
REMARK                            x       y       z     vdW  Elec       q    Type
REMARK                         _______ _______ _______ _____ _____    ______ ____
ROOT
ATOM      1  CA  ASP A   1      81.655  77.084 -15.832  0.00  0.00    +0.144 C 
ENDROOT
BRANCH   1   2
ATOM      2  N   ASP A   1      80.734  78.211 -15.598  0.00  0.00    -0.239 NA
ATOM      3  H   ASP A   1      81.111  79.077 -15.162  0.00  0.00    +0.142 HD
ENDBRANCH   1   2
BRANCH   1   4
ATOM      4  C   ASP A   1      81.645  76.036 -14.700  0.00  0.00    +0.225 C 
ATOM      5  O   ASP A   1      82.631  75.878 -13.967  0.00  0.00    -0.287 OA
ENDBRANCH   1   4
BRANCH   1   6
ATOM      6  CB  ASP A   1      83.075  77.643 -16.066  0.00  0.00    +0.139 C 
BRANCH   6   7
ATOM      7  CG  ASP A   1      84.011  76.647 -16.750  0.00  0.00    +0.367 C 
ATOM      8  OD2 ASP A   1      85.237  76.890 -16.741  0.00  0.00    -0.246 OA
ATOM      9  OD1 ASP A   1      83.531  75.631 -17.298  0.00  0.00    -0.246 OA
ENDBRANCH   6   7
ENDBRANCH   1   6
TORSDOF 4
REMARK  Name = ../refined-set-2016/1utm/1utm_pocket.pdb
REMARK  110 active torsions:
REMARK  status: ('A' for Active; 'I' for Inactive)
REMARK    1  A    between atoms: _1  and  _3
REMARK    2  A    between atoms: _3  and  _4
REMARK    3  A    between atoms: _3  and  _6
REMARK    4  A    between atoms: _9  and  _11
REMARK    5  A    between atoms: _11  and  _12
REMARK    6  A    between atoms: _11  and  _14
REMARK    7  A    between atoms: _16  and  _18
REMARK    8  A    between atoms: _18  and  _19
REMARK    9  A    between atoms: _18  and  _21
REMARK   10  A    between atoms: _21  and  _22
REMARK   11  A    between atoms: _27  and  _29
REMARK   12  A    between atoms: _29  and  _30
REMARK   13  A    between atoms: _29  and  _32
REMARK   14  A    between atoms: _32  and  _33
REMARK   15  A    between atoms: _36  and  _38
REMARK   16  A    between atoms: _38  and  _39
REMARK   17  A    between atoms: _38  and  _41
REMARK   18  A    between atoms: _41  and  _42
REMARK   19  A    between atoms: _45  and  _47
REMARK   20  A    between atoms: _47  and  _48
REMARK   21  A    between atoms: _47  and  _50
REMARK   22  A    between atoms: _50  and  _51
REMARK   23  A    between atoms: _56  and  _57
REMARK   24  A    between atoms: _59  and  _61
REMARK   25  A    between atoms: _61  and  _62
REMARK   26  A    between atoms: _65  and  _67
REMARK   27  A    between atoms: _67  and  _68
REMARK   28  A    between atoms: _67  and  _70
REMARK   29  A    between atoms: _70  and  _71
REMARK   30  A    between atoms: _71  and  _72
REMARK   31  A    between atoms: _72  and  _73
REMARK   32  A    between atoms: _73  and  _74
REMARK   33  A    between atoms: _78  and  _80
REMARK   34  A    between atoms: _80  and  _81
REMARK   35  A    between atoms: _80  and  _83
REMARK   36  A    between atoms: _83  and  _84
REMARK   37  A    between atoms: _87  and  _89
REMARK   38  A    between atoms: _89  and  _90
REMARK   39  A    between atoms: _89  and  _92
REMARK   40  A    between atoms: _92  and  _93
REMARK   41  A    between atoms: _95  and  _97
REMARK   42  A    between atoms: _97  and  _98
REMARK   43  A    between atoms: _97  and  _100
REMARK   44  A    between atoms: _100  and  _101
REMARK   45  A    between atoms: _101  and  _208
REMARK   46  A    between atoms: _102  and  _104
REMARK   47  A    between atoms: _104  and  _105
REMARK   48  A    between atoms: _104  and  _107
REMARK   49  A    between atoms: _107  and  _108
REMARK   50  A    between atoms: _108  and  _109
REMARK   51  A    between atoms: _114  and  _116
REMARK   52  A    between atoms: _116  and  _117
REMARK   53  A    between atoms: _119  and  _121
REMARK   54  A    between atoms: _121  and  _122
REMARK   55  A    between atoms: _121  and  _124
REMARK   56  A    between atoms: _124  and  _125
REMARK   57  A    between atoms: _128  and  _130
REMARK   58  A    between atoms: _130  and  _131
REMARK   59  A    between atoms: _130  and  _133
REMARK   60  A    between atoms: _133  and  _134
REMARK   61  A    between atoms: _136  and  _138
REMARK   62  A    between atoms: _138  and  _139
REMARK   63  A    between atoms: _141  and  _143
REMARK   64  A    between atoms: _143  and  _144
REMARK   65  A    between atoms: _146  and  _148
REMARK   66  A    between atoms: _148  and  _149
REMARK   67  A    between atoms: _148  and  _151
REMARK   68  A    between atoms: _154  and  _156
REMARK   69  A    between atoms: _156  and  _157
REMARK   70  A    between atoms: _156  and  _159
REMARK   71  A    between atoms: _159  and  _160
REMARK   72  A    between atoms: _162  and  _164
REMARK   73  A    between atoms: _164  and  _165
REMARK   74  A    between atoms: _164  and  _167
REMARK   75  A    between atoms: _167  and  _168
REMARK   76  A    between atoms: _178  and  _180
REMARK   77  A    between atoms: _180  and  _181
REMARK   78  A    between atoms: _183  and  _185
REMARK   79  A    between atoms: _185  and  _186
REMARK   80  A    between atoms: _185  and  _188
REMARK   81  A    between atoms: _188  and  _189
REMARK   82  A    between atoms: _194  and  _195
REMARK   83  A    between atoms: _197  and  _199
REMARK   84  A    between atoms: _199  and  _200
REMARK   85  A    between atoms: _202  and  _204
REMARK   86  A    between atoms: _204  and  _205
REMARK   87  A    between atoms: _204  and  _207
REMARK   88  A    between atoms: _207  and  _208
REMARK   89  A    between atoms: _209  and  _211
REMARK   90  A    between atoms: _211  and  _212
REMARK   91  A    between atoms: _215  and  _217
REMARK   92  A    between atoms: _217  and  _218
REMARK   93  A    between atoms: _217  and  _220
REMARK   94  A    between atoms: _220  and  _221
REMARK   95  A    between atoms: _221  and  _222
REMARK   96  A    between atoms: _225  and  _227
REMARK   97  A    between atoms: _227  and  _228
REMARK   98  A    between atoms: _227  and  _230
REMARK   99  A    between atoms: _230  and  _231
REMARK  100  A    between atoms: _237  and  _238
REMARK  101  A    between atoms: _243  and  _245
REMARK  102  A    between atoms: _245  and  _246
REMARK  103  A    between atoms: _248  and  _250
REMARK  104  A    between atoms: _250  and  _251
REMARK  105  A    between atoms: _250  and  _253
REMARK  106  A    between atoms: _256  and  _258
REMARK  107  A    between atoms: _258  and  _259
REMARK  108  A    between atoms: _258  and  _261
REMARK  109  A    between atoms: _261  and  _262
REMARK  110  A    between atoms: _267  and  _268
REMARK                            x       y       z     vdW  Elec       q    Type
REMARK                         _______ _______ _______ _____ _____    ______ ____
ROOT
ATOM      1  CG  TYR A   1      90.792  89.433 -16.961  0.00  0.00    -0.020 A 
ATOM      2  CD2 TYR A   1      90.943  88.912 -15.668  0.00  0.00    -0.001 A 
ATOM      3  CE2 TYR A   1      92.004  88.021 -15.356  0.00  0.00    +0.036 A 
ATOM      4  CZ  TYR A   1      92.912  87.656 -16.350  0.00  0.00    +0.134 A 
ATOM      5  CE1 TYR A   1      92.783  88.171 -17.632  0.00  0.00    +0.036 A 
ATOM      6  CD1 TYR A   1      91.728  89.051 -17.933  0.00  0.00    -0.001 A 
ENDROOT
BRANCH   4   7
ATOM      7  OH  TYR A   1      93.929  86.766 -16.080  0.00  0.00    -0.506 OA
ATOM      8  HH  TYR A   1      93.542  85.903 -15.788  0.00  0.00    +0.292 HD
ENDBRANCH   4   7
BRANCH   1   9
ATOM      9  CB  TYR A   1      89.610  90.349 -17.314  0.00  0.00    +0.051 C 
BRANCH   9  10
ATOM     10  CA  TYR A   1      89.961  91.838 -17.587  0.00  0.00    +0.137 C 
BRANCH  10  11
ATOM     11  N   TYR A   1      90.709  92.377 -16.438  0.00  0.00    -0.239 NA
ATOM     12  H   TYR A   1      90.187  92.590 -15.564  0.00  0.00    +0.142 HD
ENDBRANCH  10  11
BRANCH  10  13
ATOM     13  C   TYR A   1      88.665  92.665 -17.778  0.00  0.00    +0.224 C 
ATOM     14  O   TYR A   1      87.551  92.171 -17.561  0.00  0.00    -0.287 OA
ENDBRANCH  10  13
ENDBRANCH   9  10
ENDBRANCH   1   9
TORSDOF 5
REMARK  Name = ../refined-set-2016/1utm/1utm_pocket.pdb
REMARK  110 active torsions:
REMARK  status: ('A' for Active; 'I' for Inactive)
REMARK    1  A    between atoms: _1  and  _3
REMARK    2  A    between atoms: _3  and  _4
REMARK    3  A    between atoms: _3  and  _6
REMARK    4  A    between atoms: _9  and  _11
REMARK    5  A    between atoms: _11  and  _12
REMARK    6  A    between atoms: _11  and  _14
REMARK    7  A    between atoms: _16  and  _18
REMARK    8  A    between atoms: _18  and  _19
REMARK    9  A    between atoms: _18  and  _21
REMARK   10  A    between atoms: _21  and  _22
REMARK   11  A    between atoms: _27  and  _29
REMARK   12  A    between atoms: _29  and  _30
REMARK   13  A    between atoms: _29  and  _32
REMARK   14  A    between atoms: _32  and  _33
REMARK   15  A    between atoms: _36  and  _38
REMARK   16  A    between atoms: _38  and  _39
REMARK   17  A    between atoms: _38  and  _41
REMARK   18  A    between atoms: _41  and  _42
REMARK   19  A    between atoms: _45  and  _47
REMARK   20  A    between atoms: _47  and  _48
REMARK   21  A    between atoms: _47  and  _50
REMARK   22  A    between atoms: _50  and  _51
REMARK   23  A    between atoms: _56  and  _57
REMARK   24  A    between atoms: _59  and  _61
REMARK   25  A    between atoms: _61  and  _62
REMARK   26  A    between atoms: _65  and  _67
REMARK   27  A    between atoms: _67  and  _68
REMARK   28  A    between atoms: _67  and  _70
REMARK   29  A    between atoms: _70  and  _71
REMARK   30  A    between atoms: _71  and  _72
REMARK   31  A    between atoms: _72  and  _73
REMARK   32  A    between atoms: _73  and  _74
REMARK   33  A    between atoms: _78  and  _80
REMARK   34  A    between atoms: _80  and  _81
REMARK   35  A    between atoms: _80  and  _83
REMARK   36  A    between atoms: _83  and  _84
REMARK   37  A    between atoms: _87  and  _89
REMARK   38  A    between atoms: _89  and  _90
REMARK   39  A    between atoms: _89  and  _92
REMARK   40  A    between atoms: _92  and  _93
REMARK   41  A    between atoms: _95  and  _97
REMARK   42  A    between atoms: _97  and  _98
REMARK   43  A    between atoms: _97  and  _100
REMARK   44  A    between atoms: _100  and  _101
REMARK   45  A    between atoms: _101  and  _208
REMARK   46  A    between atoms: _102  and  _104
REMARK   47  A    between atoms: _104  and  _105
REMARK   48  A    between atoms: _104  and  _107
REMARK   49  A    between atoms: _107  and  _108
REMARK   50  A    between atoms: _108  and  _109
REMARK   51  A    between atoms: _114  and  _116
REMARK   52  A    between atoms: _116  and  _117
REMARK   53  A    between atoms: _119  and  _121
REMARK   54  A    between atoms: _121  and  _122
REMARK   55  A    between atoms: _121  and  _124
REMARK   56  A    between atoms: _124  and  _125
REMARK   57  A    between atoms: _128  and  _130
REMARK   58  A    between atoms: _130  and  _131
REMARK   59  A    between atoms: _130  and  _133
REMARK   60  A    between atoms: _133  and  _134
REMARK   61  A    between atoms: _136  and  _138
REMARK   62  A    between atoms: _138  and  _139
REMARK   63  A    between atoms: _141  and  _143
REMARK   64  A    between atoms: _143  and  _144
REMARK   65  A    between atoms: _146  and  _148
REMARK   66  A    between atoms: _148  and  _149
REMARK   67  A    between atoms: _148  and  _151
REMARK   68  A    between atoms: _154  and  _156
REMARK   69  A    between atoms: _156  and  _157
REMARK   70  A    between atoms: _156  and  _159
REMARK   71  A    between atoms: _159  and  _160
REMARK   72  A    between atoms: _162  and  _164
REMARK   73  A    between atoms: _164  and  _165
REMARK   74  A    between atoms: _164  and  _167
REMARK   75  A    between atoms: _167  and  _168
REMARK   76  A    between atoms: _178  and  _180
REMARK   77  A    between atoms: _180  and  _181
REMARK   78  A    between atoms: _183  and  _185
REMARK   79  A    between atoms: _185  and  _186
REMARK   80  A    between atoms: _185  and  _188
REMARK   81  A    between atoms: _188  and  _189
REMARK   82  A    between atoms: _194  and  _195
REMARK   83  A    between atoms: _197  and  _199
REMARK   84  A    between atoms: _199  and  _200
REMARK   85  A    between atoms: _202  and  _204
REMARK   86  A    between atoms: _204  and  _205
REMARK   87  A    between atoms: _204  and  _207
REMARK   88  A    between atoms: _207  and  _208
REMARK   89  A    between atoms: _209  and  _211
REMARK   90  A    between atoms: _211  and  _212
REMARK   91  A    between atoms: _215  and  _217
REMARK   92  A    between atoms: _217  and  _218
REMARK   93  A    between atoms: _217  and  _220
REMARK   94  A    between atoms: _220  and  _221
REMARK   95  A    between atoms: _221  and  _222
REMARK   96  A    between atoms: _225  and  _227
REMARK   97  A    between atoms: _227  and  _228
REMARK   98  A    between atoms: _227  and  _230
REMARK   99  A    between atoms: _230  and  _231
REMARK  100  A    between atoms: _237  and  _238
REMARK  101  A    between atoms: _243  and  _245
REMARK  102  A    between atoms: _245  and  _246
REMARK  103  A    between atoms: _248  and  _250
REMARK  104  A    between atoms: _250  and  _251
REMARK  105  A    between atoms: _250  and  _253
REMARK  106  A    between atoms: _256  and  _258
REMARK  107  A    between atoms: _258  and  _259
REMARK  108  A    between atoms: _258  and  _261
REMARK  109  A    between atoms: _261  and  _262
REMARK  110  A    between atoms: _267  and  _268
REMARK                            x       y       z     vdW  Elec       q    Type
REMARK                         _______ _______ _______ _____ _____    ______ ____
ROOT
ATOM      1  CA  ALA A   1      92.434  84.821  -6.704  0.00  0.00    +0.133 C 
ATOM      2  CB  ALA A   1      91.886  83.548  -6.049  0.00  0.00    +0.027 C 
ENDROOT
BRANCH   1   3
ATOM      3  N   ALA A   1      91.645  85.202  -7.887  0.00  0.00    -0.239 NA
ATOM      4  H   ALA A   1      91.949  84.858  -8.820  0.00  0.00    +0.142 HD
ENDBRANCH   1   3
BRANCH   1   5
ATOM      5  C   ALA A   1      93.884  84.629  -7.152  0.00  0.00    +0.224 C 
ATOM      6  O   ALA A   1      94.143  84.169  -8.280  0.00  0.00    -0.287 OA
ENDBRANCH   1   5
TORSDOF 2
REMARK  Name = ../refined-set-2016/1utm/1utm_pocket.pdb
REMARK  110 active torsions:
REMARK  status: ('A' for Active; 'I' for Inactive)
REMARK    1  A    between atoms: _1  and  _3
REMARK    2  A    between atoms: _3  and  _4
REMARK    3  A    between atoms: _3  and  _6
REMARK    4  A    between atoms: _9  and  _11
REMARK    5  A    between atoms: _11  and  _12
REMARK    6  A    between atoms: _11  and  _14
REMARK    7  A    between atoms: _16  and  _18
REMARK    8  A    between atoms: _18  and  _19
REMARK    9  A    between atoms: _18  and  _21
REMARK   10  A    between atoms: _21  and  _22
REMARK   11  A    between atoms: _27  and  _29
REMARK   12  A    between atoms: _29  and  _30
REMARK   13  A    between atoms: _29  and  _32
REMARK   14  A    between atoms: _32  and  _33
REMARK   15  A    between atoms: _36  and  _38
REMARK   16  A    between atoms: _38  and  _39
REMARK   17  A    between atoms: _38  and  _41
REMARK   18  A    between atoms: _41  and  _42
REMARK   19  A    between atoms: _45  and  _47
REMARK   20  A    between atoms: _47  and  _48
REMARK   21  A    between atoms: _47  and  _50
REMARK   22  A    between atoms: _50  and  _51
REMARK   23  A    between atoms: _56  and  _57
REMARK   24  A    between atoms: _59  and  _61
REMARK   25  A    between atoms: _61  and  _62
REMARK   26  A    between atoms: _65  and  _67
REMARK   27  A    between atoms: _67  and  _68
REMARK   28  A    between atoms: _67  and  _70
REMARK   29  A    between atoms: _70  and  _71
REMARK   30  A    between atoms: _71  and  _72
REMARK   31  A    between atoms: _72  and  _73
REMARK   32  A    between atoms: _73  and  _74
REMARK   33  A    between atoms: _78  and  _80
REMARK   34  A    between atoms: _80  and  _81
REMARK   35  A    between atoms: _80  and  _83
REMARK   36  A    between atoms: _83  and  _84
REMARK   37  A    between atoms: _87  and  _89
REMARK   38  A    between atoms: _89  and  _90
REMARK   39  A    between atoms: _89  and  _92
REMARK   40  A    between atoms: _92  and  _93
REMARK   41  A    between atoms: _95  and  _97
REMARK   42  A    between atoms: _97  and  _98
REMARK   43  A    between atoms: _97  and  _100
REMARK   44  A    between atoms: _100  and  _101
REMARK   45  A    between atoms: _101  and  _208
REMARK   46  A    between atoms: _102  and  _104
REMARK   47  A    between atoms: _104  and  _105
REMARK   48  A    between atoms: _104  and  _107
REMARK   49  A    between atoms: _107  and  _108
REMARK   50  A    between atoms: _108  and  _109
REMARK   51  A    between atoms: _114  and  _116
REMARK   52  A    between atoms: _116  and  _117
REMARK   53  A    between atoms: _119  and  _121
REMARK   54  A    between atoms: _121  and  _122
REMARK   55  A    between atoms: _121  and  _124
REMARK   56  A    between atoms: _124  and  _125
REMARK   57  A    between atoms: _128  and  _130
REMARK   58  A    between atoms: _130  and  _131
REMARK   59  A    between atoms: _130  and  _133
REMARK   60  A    between atoms: _133  and  _134
REMARK   61  A    between atoms: _136  and  _138
REMARK   62  A    between atoms: _138  and  _139
REMARK   63  A    between atoms: _141  and  _143
REMARK   64  A    between atoms: _143  and  _144
REMARK   65  A    between atoms: _146  and  _148
REMARK   66  A    between atoms: _148  and  _149
REMARK   67  A    between atoms: _148  and  _151
REMARK   68  A    between atoms: _154  and  _156
REMARK   69  A    between atoms: _156  and  _157
REMARK   70  A    between atoms: _156  and  _159
REMARK   71  A    between atoms: _159  and  _160
REMARK   72  A    between atoms: _162  and  _164
REMARK   73  A    between atoms: _164  and  _165
REMARK   74  A    between atoms: _164  and  _167
REMARK   75  A    between atoms: _167  and  _168
REMARK   76  A    between atoms: _178  and  _180
REMARK   77  A    between atoms: _180  and  _181
REMARK   78  A    between atoms: _183  and  _185
REMARK   79  A    between atoms: _185  and  _186
REMARK   80  A    between atoms: _185  and  _188
REMARK   81  A    between atoms: _188  and  _189
REMARK   82  A    between atoms: _194  and  _195
REMARK   83  A    between atoms: _197  and  _199
REMARK   84  A    between atoms: _199  and  _200
REMARK   85  A    between atoms: _202  and  _204
REMARK   86  A    between atoms: _204  and  _205
REMARK   87  A    between atoms: _204  and  _207
REMARK   88  A    between atoms: _207  and  _208
REMARK   89  A    between atoms: _209  and  _211
REMARK   90  A    between atoms: _211  and  _212
REMARK   91  A    between atoms: _215  and  _217
REMARK   92  A    between atoms: _217  and  _218
REMARK   93  A    between atoms: _217  and  _220
REMARK   94  A    between atoms: _220  and  _221
REMARK   95  A    between atoms: _221  and  _222
REMARK   96  A    between atoms: _225  and  _227
REMARK   97  A    between atoms: _227  and  _228
REMARK   98  A    between atoms: _227  and  _230
REMARK   99  A    between atoms: _230  and  _231
REMARK  100  A    between atoms: _237  and  _238
REMARK  101  A    between atoms: _243  and  _245
REMARK  102  A    between atoms: _245  and  _246
REMARK  103  A    between atoms: _248  and  _250
REMARK  104  A    between atoms: _250  and  _251
REMARK  105  A    between atoms: _250  and  _253
REMARK  106  A    between atoms: _256  and  _258
REMARK  107  A    between atoms: _258  and  _259
REMARK  108  A    between atoms: _258  and  _261
REMARK  109  A    between atoms: _261  and  _262
REMARK  110  A    between atoms: _267  and  _268
REMARK                            x       y       z     vdW  Elec       q    Type
REMARK                         _______ _______ _______ _____ _____    ______ ____
ROOT
ATOM      1  CB  GLY A   4      99.176  76.162 -15.109  0.00  0.00    +0.098 C 
ENDROOT
BRANCH   1   2
ATOM      2  CA  GLY A   4      97.639  76.278 -14.933  0.00  0.00    +0.160 C 
BRANCH   2   5
ATOM      3  C   TRP A   3      97.285  77.421 -12.827  0.00  0.00    +0.243 C 
ATOM      4  O   TRP A   3      97.462  78.512 -13.388  0.00  0.00    -0.273 OA
ATOM      5  N   GLY A   4      97.317  76.275 -13.503  0.00  0.00    -0.296 N 
ATOM      6  H   GLY A   4      97.114  75.378 -13.017  0.00  0.00    +0.150 HD
BRANCH   3   7
ATOM      7  CA  TRP A   3      96.987  77.381 -11.316  0.00  0.00    +0.178 C 
BRANCH   7  10
ATOM      8  C   SER A   2      98.660  78.970 -10.491  0.00  0.00    +0.241 C 
ATOM      9  O   SER A   2      99.516  78.082 -10.375  0.00  0.00    -0.273 OA
ATOM     10  N   TRP A   3      97.404  78.709 -10.847  0.00  0.00    -0.295 N 
ATOM     11  H   TRP A   3      96.696  79.469 -10.791  0.00  0.00    +0.150 HD
BRANCH   8  12
ATOM     12  CA  SER A   2      98.991  80.435 -10.148  0.00  0.00    +0.160 C 
BRANCH  12  15
ATOM     13  C   VAL A   1     100.757  81.697  -9.008  0.00  0.00    +0.238 C 
ATOM     14  O   VAL A   1     100.070  82.723  -8.973  0.00  0.00    -0.274 OA
ATOM     15  N   SER A   2     100.302  80.531  -9.486  0.00  0.00    -0.297 N 
ATOM     16  H   SER A   2     100.887  79.677  -9.387  0.00  0.00    +0.150 HD
BRANCH  13  17
ATOM     17  CA  VAL A   1     102.163  81.727  -8.408  0.00  0.00    +0.145 C 
BRANCH  17  18
ATOM     18  N   VAL A   1     102.905  82.804  -9.081  0.00  0.00    -0.238 NA
ATOM     19  H   VAL A   1     102.423  83.709  -9.252  0.00  0.00    +0.142 HD
ENDBRANCH  17  18
BRANCH  17  20
ATOM     20  CB  VAL A   1     102.074  82.001  -6.903  0.00  0.00    +0.026 C 
BRANCH  20  21
ATOM     21  CG  VAL A   1     103.414  82.083  -6.182  0.00  0.00    -0.000 C 
BRANCH  21  22
ATOM     22  CD  VAL A   1     103.198  82.345  -4.697  0.00  0.00    -0.024 C 
BRANCH  22  23
ATOM     23  CE  VAL A   1     104.508  82.599  -3.957  0.00  0.00    -0.086 C 
BRANCH  23  24
ATOM     24  NZ  VAL A   1     105.418  81.415  -3.953  0.00  0.00    +0.380 N 
ATOM     25  HZ1 VAL A   1     106.289  81.651  -3.436  0.00  0.00    -0.089 HD
ATOM     26  HZ2 VAL A   1     104.943  80.616  -3.488  0.00  0.00    -0.089 HD
ATOM     27  HZ3 VAL A   1     105.654  81.157  -4.933  0.00  0.00    -0.089 HD
ENDBRANCH  23  24
ENDBRANCH  22  23
ENDBRANCH  21  22
ENDBRANCH  20  21
ENDBRANCH  17  20
ENDBRANCH  13  17
ENDBRANCH  12  15
BRANCH  12  28
ATOM     28  CB  SER A   2      99.106  81.238 -11.473  0.00  0.00    +0.143 C 
BRANCH  28  29
ATOM     29  CG  SER A   2      97.754  81.619 -12.109  0.00  0.00    +0.367 C 
ATOM     30  OD2 SER A   2      96.664  81.368 -11.540  0.00  0.00    -0.246 OA
ATOM     31  OD1 SER A   2      97.797  82.203 -13.221  0.00  0.00    -0.246 OA
ENDBRANCH  28  29
ENDBRANCH  12  28
ENDBRANCH   8  12
ENDBRANCH   7  10
BRANCH   7  32
ATOM     32  CB  TRP A   3      95.489  77.150 -11.052  0.00  0.00    +0.166 C 
BRANCH  32  33
ATOM     33  O   TRP A   3      94.692  78.233 -11.511  0.00  0.00    -0.380 OA
ATOM     34  H   TRP A   3      94.964  79.062 -11.044  0.00  0.00    +0.211 HD
ENDBRANCH  32  33
ENDBRANCH   7  32
ENDBRANCH   3   7
ENDBRANCH   2   5
BRANCH   2  35
ATOM     35  C   GLY A   4      96.892  75.172 -15.690  0.00  0.00    +0.242 C 
ATOM     36  O   GLY A   4      95.960  74.556 -15.150  0.00  0.00    -0.273 OA
ATOM     37  N   GLN A   5      97.262  74.952 -16.952  0.00  0.00    -0.297 N 
ATOM     38  H   GLN A   5      98.019  75.533 -17.366  0.00  0.00    +0.150 HD
BRANCH  37  39
ATOM     39  CA  GLN A   5      96.632  73.914 -17.772  0.00  0.00    +0.149 C 
BRANCH  39  40
ATOM     40  C   GLN A   5      96.829  72.536 -17.109  0.00  0.00    +0.241 C 
ATOM     41  O   GLN A   5      97.956  72.165 -16.717  0.00  0.00    -0.273 OA
ATOM     42  N   GLY A   6      95.734  71.788 -17.003  0.00  0.00    -0.295 N 
ATOM     43  H   GLY A   6      94.834  72.144 -17.382  0.00  0.00    +0.150 HD
BRANCH  42  44
ATOM     44  CA  GLY A   6      95.773  70.482 -16.367  0.00  0.00    +0.176 C 
BRANCH  44  45
ATOM     45  C   GLY A   6      95.134  70.531 -14.982  0.00  0.00    +0.243 C 
ATOM     46  N   ASP A   7      95.069  71.736 -14.395  0.00  0.00    -0.296 N 
ATOM     47  H   ASP A   7      95.472  72.553 -14.896  0.00  0.00    +0.150 HD
ATOM     48  O   GLY A   6      94.742  69.486 -14.438  0.00  0.00    -0.273 OA
BRANCH  46  49
ATOM     49  CA  ASP A   7      94.456  71.956 -13.079  0.00  0.00    +0.160 C 
BRANCH  49  50
ATOM     50  C   ASP A   7      92.949  72.233 -13.195  0.00  0.00    +0.241 C 
ATOM     51  O   ASP A   7      92.233  72.201 -12.179  0.00  0.00    -0.273 OA
ATOM     52  N   SER A   8      92.487  72.532 -14.420  0.00  0.00    -0.295 N 
ATOM     53  H   SER A   8      93.169  72.555 -15.205  0.00  0.00    +0.150 HD
BRANCH  52  54
ATOM     54  CA  SER A   8      91.072  72.831 -14.725  0.00  0.00    +0.178 C 
BRANCH  54  55
ATOM     55  C   SER A   8      90.082  71.893 -14.038  0.00  0.00    +0.243 C 
ATOM     56  N   GLY A   9      89.006  72.462 -13.485  0.00  0.00    -0.295 N 
ATOM     57  H   GLY A   9      88.890  73.494 -13.537  0.00  0.00    +0.150 HD
ATOM     58  O   SER A   8      90.265  70.662 -14.075  0.00  0.00    -0.273 OA
BRANCH  56  59
ATOM     59  CA  GLY A   9      87.990  71.658 -12.809  0.00  0.00    +0.176 C 
BRANCH  59  60
ATOM     60  C   GLY A   9      88.262  71.335 -11.345  0.00  0.00    +0.243 C 
ATOM     61  O   GLY A   9      87.343  70.919 -10.633  0.00  0.00    -0.273 OA
ATOM     62  N   GLY A  10      89.504  71.557 -10.900  0.00  0.00    -0.296 N 
ATOM     63  H   GLY A  10      90.208  71.938 -11.564  0.00  0.00    +0.150 HD
BRANCH  62  64
ATOM     64  CA  GLY A  10      89.917  71.289  -9.524  0.00  0.00    +0.163 C 
BRANCH  64  65
ATOM     65  C   GLY A  10      89.363  72.223  -8.451  0.00  0.00    +0.229 C 
ATOM     66  O   GLY A  10      88.757  73.252  -8.778  0.00  0.00    -0.286 OA
ENDBRANCH  64  65
ENDBRANCH  62  64
ENDBRANCH  59  60
ENDBRANCH  56  59
ENDBRANCH  54  55
BRANCH  54  67
ATOM     67  CB  SER A   8      90.800  72.723 -16.235  0.00  0.00    +0.166 C 
BRANCH  67  68
ATOM     68  OG  SER A   8      91.376  73.772 -16.985  0.00  0.00    -0.380 OA
ATOM     69  H   SER A   8      91.165  73.645 -17.944  0.00  0.00    +0.211 HD
ENDBRANCH  67  68
ENDBRANCH  54  67
ENDBRANCH  52  54
ENDBRANCH  49  50
BRANCH  49  70
ATOM     70  CB  ASP A   7      95.130  73.129 -12.340  0.00  0.00    +0.143 C 
BRANCH  70  71
ATOM     71  CG  ASP A   7      96.578  72.842 -11.951  0.00  0.00    +0.367 C 
ATOM     72  OD2 ASP A   7      96.871  71.696 -11.531  0.00  0.00    -0.246 OA
ATOM     73  OD1 ASP A   7      97.421  73.770 -12.048  0.00  0.00    -0.246 OA
ENDBRANCH  70  71
ENDBRANCH  49  70
ENDBRANCH  46  49
ENDBRANCH  44  45
ENDBRANCH  42  44
ENDBRANCH  39  40
BRANCH  39  74
ATOM     74  CB  GLN A   5      97.222  73.919 -19.194  0.00  0.00    +0.039 C 
BRANCH  74  75
ATOM     75  CG  GLN A   5      96.614  72.884 -20.138  0.00  0.00    +0.087 C 
BRANCH  75  76
ATOM     76  CD  GLN A   5      95.119  73.068 -20.338  0.00  0.00    +0.219 C 
ATOM     77  OE1 GLN A   5      94.331  72.904 -19.405  0.00  0.00    -0.275 OA
ATOM     78  NE2 GLN A   5      94.722  73.403 -21.558  0.00  0.00    -0.329 N 
ATOM     79 HE21 GLN A   5      93.710  73.538 -21.757  0.00  0.00    +0.145 HD
ATOM     80 HE22 GLN A   5      95.423  73.531 -22.316  0.00  0.00    +0.145 HD
ENDBRANCH  75  76
ENDBRANCH  74  75
ENDBRANCH  39  74
ENDBRANCH  37  39
ENDBRANCH   2  35
ENDBRANCH   1   2
BRANCH   1  81
ATOM     81  SG  GLY A   4      99.899  76.660 -16.723  0.00  0.00    -0.080 S 
BRANCH  81  82
ATOM     82  SG  ASP A   7      99.101  78.508 -17.081  0.00  0.00    -0.080 S 
BRANCH  82  83
ATOM     83  CB  ASP A   7     100.198  79.636 -16.177  0.00  0.00    +0.098 C 
BRANCH  83  84
ATOM     84  CA  ASP A   7      99.806  81.120 -16.206  0.00  0.00    +0.160 C 
BRANCH  84  85
ATOM     85  N   ASP A   7      99.698  81.622 -17.573  0.00  0.00    -0.296 N 
ATOM     86  H   ASP A   7     100.568  81.803 -18.113  0.00  0.00    +0.150 HD
ATOM     87  C   GLY A   6      98.523  81.855 -18.150  0.00  0.00    +0.243 C 
ATOM     88  O   GLY A   6      97.443  81.655 -17.582  0.00  0.00    -0.273 OA
BRANCH  87  89
ATOM     89  CA  GLY A   6      98.546  82.411 -19.570  0.00  0.00    +0.176 C 
BRANCH  89  90
ATOM     90  N   GLY A   6      97.251  82.999 -19.882  0.00  0.00    -0.295 N 
ATOM     91  C   GLN A   5      96.871  84.171 -19.368  0.00  0.00    +0.241 C 
ATOM     92  O   GLN A   5      97.578  84.832 -18.588  0.00  0.00    -0.273 OA
ATOM     93  H   GLY A   6      96.606  82.493 -20.522  0.00  0.00    +0.150 HD
BRANCH  91  94
ATOM     94  CA  GLN A   5      95.453  84.640 -19.749  0.00  0.00    +0.153 C 
BRANCH  94  95
ATOM     95  N   GLN A   5      94.596  84.384 -18.586  0.00  0.00    -0.297 N 
ATOM     96  H   GLN A   5      94.612  85.045 -17.783  0.00  0.00    +0.150 HD
ATOM     97  C   GLY A   4      93.797  83.317 -18.542  0.00  0.00    +0.243 C 
ATOM     98  O   GLY A   4      93.668  82.556 -19.505  0.00  0.00    -0.273 OA
BRANCH  97  99
ATOM     99  CA  GLY A   4      92.973  83.096 -17.276  0.00  0.00    +0.176 C 
BRANCH  99 100
ATOM    100  N   GLY A   4      92.014  82.017 -17.499  0.00  0.00    -0.295 N 
ATOM    101  C   TRP A   3      91.303  81.470 -16.512  0.00  0.00    +0.241 C 
ATOM    102  O   TRP A   3      91.456  81.774 -15.328  0.00  0.00    -0.273 OA
ATOM    103  H   GLY A   4      91.880  81.661 -18.467  0.00  0.00    +0.150 HD
BRANCH 101 104
ATOM    104  CA  TRP A   3      90.310  80.355 -16.927  0.00  0.00    +0.153 C 
BRANCH 104 105
ATOM    105  N   TRP A   3      89.516  79.752 -15.837  0.00  0.00    -0.297 N 
ATOM    106  H   TRP A   3      89.291  80.322 -14.997  0.00  0.00    +0.150 HD
ATOM    107  C   SER A   2      89.078  78.485 -15.906  0.00  0.00    +0.243 C 
ATOM    108  O   SER A   2      89.274  77.767 -16.893  0.00  0.00    -0.273 OA
BRANCH 107 109
ATOM    109  CA  SER A   2      88.231  77.948 -14.741  0.00  0.00    +0.178 C 
BRANCH 109 110
ATOM    110  N   SER A   2      88.894  77.643 -13.466  0.00  0.00    -0.295 N 
ATOM    111  H   SER A   2      89.334  78.420 -12.932  0.00  0.00    +0.150 HD
ATOM    112  C   VAL A   1      88.953  76.405 -12.967  0.00  0.00    +0.238 C 
ATOM    113  O   VAL A   1      88.544  75.419 -13.589  0.00  0.00    -0.274 OA
BRANCH 112 114
ATOM    114  CA  VAL A   1      89.596  76.243 -11.566  0.00  0.00    +0.145 C 
BRANCH 114 115
ATOM    115  CB  VAL A   1      90.882  75.347 -11.650  0.00  0.00    +0.025 C 
ATOM    116  CG2 VAL A   1      91.485  75.118 -10.244  0.00  0.00    +0.002 C 
ATOM    117  CG1 VAL A   1      91.919  75.987 -12.570  0.00  0.00    +0.002 C 
ENDBRANCH 114 115
BRANCH 114 118
ATOM    118  N   VAL A   1      88.608  75.694 -10.609  0.00  0.00    -0.238 NA
ATOM    119  H   VAL A   1      88.820  74.802 -10.118  0.00  0.00    +0.142 HD
ENDBRANCH 114 118
ENDBRANCH 112 114
ENDBRANCH 109 110
BRANCH 109 120
ATOM    120  CB  SER A   2      87.042  78.898 -14.474  0.00  0.00    +0.166 C 
BRANCH 120 121
ATOM    121  OG  SER A   2      86.254  79.139 -15.630  0.00  0.00    -0.380 OA
ATOM    122  H   SER A   2      85.886  78.282 -15.962  0.00  0.00    +0.211 HD
ENDBRANCH 120 121
ENDBRANCH 109 120
ENDBRANCH 107 109
ENDBRANCH 104 105
BRANCH 104 123
ATOM    123  CB  TRP A   3      89.378  80.872 -18.051  0.00  0.00    +0.057 C 
BRANCH 123 124
ATOM    124  CG  TRP A   3      88.485  82.057 -17.676  0.00  0.00    -0.002 A 
ATOM    125  CD1 TRP A   3      87.273  82.004 -17.043  0.00  0.00    +0.068 A 
ATOM    126  NE1 TRP A   3      86.752  83.272 -16.899  0.00  0.00    -0.352 N 
ATOM    127  HE1 TRP A   3      85.842  83.503 -16.453  0.00  0.00    +0.166 HD
ATOM    128  CE2 TRP A   3      87.627  84.180 -17.439  0.00  0.00    +0.056 A 
ATOM    129  CZ2 TRP A   3      87.536  85.581 -17.529  0.00  0.00    +0.017 A 
ATOM    130  CH2 TRP A   3      88.577  86.247 -18.130  0.00  0.00    +0.001 A 
ATOM    131  CZ3 TRP A   3      89.695  85.560 -18.641  0.00  0.00    +0.000 A 
ATOM    132  CE3 TRP A   3      89.786  84.164 -18.552  0.00  0.00    +0.001 A 
ATOM    133  CD2 TRP A   3      88.734  83.456 -17.940  0.00  0.00    +0.013 A 
ENDBRANCH 123 124
ENDBRANCH 104 123
ENDBRANCH 101 104
ENDBRANCH  99 100
ENDBRANCH  97  99
ENDBRANCH  94  95
BRANCH  94 134
ATOM    134  CB  GLN A   5      95.437  86.130 -20.137  0.00  0.00    +0.055 C 
BRANCH 134 135
ATOM    135  CG  GLN A   5      94.228  86.546 -20.946  0.00  0.00    -0.020 A 
ATOM    136  CD2 GLN A   5      92.935  86.281 -20.496  0.00  0.00    -0.001 A 
ATOM    137  CE2 GLN A   5      91.821  86.657 -21.242  0.00  0.00    +0.036 A 
ATOM    138  CZ  GLN A   5      91.996  87.306 -22.453  0.00  0.00    +0.134 A 
ATOM    139  CE1 GLN A   5      93.271  87.582 -22.922  0.00  0.00    +0.036 A 
ATOM    140  CD1 GLN A   5      94.377  87.202 -22.167  0.00  0.00    -0.001 A 
BRANCH 138 141
ATOM    141  OH  GLN A   5      90.901  87.676 -23.199  0.00  0.00    -0.506 OA
ATOM    142  HH  GLN A   5      90.074  87.407 -22.725  0.00  0.00    +0.292 HD
ENDBRANCH 138 141
ENDBRANCH 134 135
ENDBRANCH  94 134
ENDBRANCH  91  94
ENDBRANCH  89  90
ENDBRANCH  87  89
ENDBRANCH  84  85
BRANCH  84 143
ATOM    143  C   ASP A   7     100.899  81.892 -15.488  0.00  0.00    +0.242 C 
ATOM    144  N   SER A   8     100.569  82.425 -14.315  0.00  0.00    -0.297 N 
ATOM    145  H   SER A   8      99.590  82.317 -13.981  0.00  0.00    +0.150 HD
ATOM    146  O   ASP A   7     102.025  81.987 -15.987  0.00  0.00    -0.273 OA
BRANCH 144 147
ATOM    147  CA  SER A   8     101.516  83.157 -13.470  0.00  0.00    +0.149 C 
ATOM    148  CB  SER A   8     102.616  82.204 -12.966  0.00  0.00    +0.031 C 
BRANCH 147 149
ATOM    149  C   SER A   8     102.132  84.429 -14.066  0.00  0.00    +0.241 C 
ATOM    150  O   SER A   8     103.189  84.881 -13.607  0.00  0.00    -0.273 OA
ATOM    151  N   GLY A   9     101.456  85.026 -15.047  0.00  0.00    -0.298 N 
ATOM    152  H   GLY A   9     100.563  84.605 -15.373  0.00  0.00    +0.150 HD
BRANCH 151 153
ATOM    153  CA  GLY A   9     101.935  86.260 -15.681  0.00  0.00    +0.137 C 
BRANCH 153 154
ATOM    154  C   GLY A   9     101.527  87.491 -14.851  0.00  0.00    +0.227 C 
ATOM    155  O   GLY A   9     100.412  87.557 -14.320  0.00  0.00    -0.286 OA
ENDBRANCH 153 154
BRANCH 153 156
ATOM    156  CB  GLY A   9     101.367  86.377 -17.101  0.00  0.00    +0.039 C 
BRANCH 156 157
ATOM    157  CG  GLY A   9     101.714  85.211 -18.020  0.00  0.00    +0.116 C 
BRANCH 157 158
ATOM    158  CD  GLY A   9     103.210  85.027 -18.205  0.00  0.00    +0.365 C 
ATOM    159  OE2 GLY A   9     103.759  84.042 -17.667  0.00  0.00    -0.246 OA
ATOM    160  OE1 GLY A   9     103.835  85.863 -18.892  0.00  0.00    -0.246 OA
ENDBRANCH 157 158
ENDBRANCH 156 157
ENDBRANCH 153 156
ENDBRANCH 151 153
ENDBRANCH 147 149
ENDBRANCH 144 147
ENDBRANCH  84 143
ENDBRANCH  83  84
ENDBRANCH  82  83
ENDBRANCH  81  82
ENDBRANCH   1  81
TORSDOF 70
REMARK  Name = ../refined-set-2016/1utm/1utm_pocket.pdb
REMARK  110 active torsions:
REMARK  status: ('A' for Active; 'I' for Inactive)
REMARK    1  A    between atoms: _1  and  _3
REMARK    2  A    between atoms: _3  and  _4
REMARK    3  A    between atoms: _3  and  _6
REMARK    4  A    between atoms: _9  and  _11
REMARK    5  A    between atoms: _11  and  _12
REMARK    6  A    between atoms: _11  and  _14
REMARK    7  A    between atoms: _16  and  _18
REMARK    8  A    between atoms: _18  and  _19
REMARK    9  A    between atoms: _18  and  _21
REMARK   10  A    between atoms: _21  and  _22
REMARK   11  A    between atoms: _27  and  _29
REMARK   12  A    between atoms: _29  and  _30
REMARK   13  A    between atoms: _29  and  _32
REMARK   14  A    between atoms: _32  and  _33
REMARK   15  A    between atoms: _36  and  _38
REMARK   16  A    between atoms: _38  and  _39
REMARK   17  A    between atoms: _38  and  _41
REMARK   18  A    between atoms: _41  and  _42
REMARK   19  A    between atoms: _45  and  _47
REMARK   20  A    between atoms: _47  and  _48
REMARK   21  A    between atoms: _47  and  _50
REMARK   22  A    between atoms: _50  and  _51
REMARK   23  A    between atoms: _56  and  _57
REMARK   24  A    between atoms: _59  and  _61
REMARK   25  A    between atoms: _61  and  _62
REMARK   26  A    between atoms: _65  and  _67
REMARK   27  A    between atoms: _67  and  _68
REMARK   28  A    between atoms: _67  and  _70
REMARK   29  A    between atoms: _70  and  _71
REMARK   30  A    between atoms: _71  and  _72
REMARK   31  A    between atoms: _72  and  _73
REMARK   32  A    between atoms: _73  and  _74
REMARK   33  A    between atoms: _78  and  _80
REMARK   34  A    between atoms: _80  and  _81
REMARK   35  A    between atoms: _80  and  _83
REMARK   36  A    between atoms: _83  and  _84
REMARK   37  A    between atoms: _87  and  _89
REMARK   38  A    between atoms: _89  and  _90
REMARK   39  A    between atoms: _89  and  _92
REMARK   40  A    between atoms: _92  and  _93
REMARK   41  A    between atoms: _95  and  _97
REMARK   42  A    between atoms: _97  and  _98
REMARK   43  A    between atoms: _97  and  _100
REMARK   44  A    between atoms: _100  and  _101
REMARK   45  A    between atoms: _101  and  _208
REMARK   46  A    between atoms: _102  and  _104
REMARK   47  A    between atoms: _104  and  _105
REMARK   48  A    between atoms: _104  and  _107
REMARK   49  A    between atoms: _107  and  _108
REMARK   50  A    between atoms: _108  and  _109
REMARK   51  A    between atoms: _114  and  _116
REMARK   52  A    between atoms: _116  and  _117
REMARK   53  A    between atoms: _119  and  _121
REMARK   54  A    between atoms: _121  and  _122
REMARK   55  A    between atoms: _121  and  _124
REMARK   56  A    between atoms: _124  and  _125
REMARK   57  A    between atoms: _128  and  _130
REMARK   58  A    between atoms: _130  and  _131
REMARK   59  A    between atoms: _130  and  _133
REMARK   60  A    between atoms: _133  and  _134
REMARK   61  A    between atoms: _136  and  _138
REMARK   62  A    between atoms: _138  and  _139
REMARK   63  A    between atoms: _141  and  _143
REMARK   64  A    between atoms: _143  and  _144
REMARK   65  A    between atoms: _146  and  _148
REMARK   66  A    between atoms: _148  and  _149
REMARK   67  A    between atoms: _148  and  _151
REMARK   68  A    between atoms: _154  and  _156
REMARK   69  A    between atoms: _156  and  _157
REMARK   70  A    between atoms: _156  and  _159
REMARK   71  A    between atoms: _159  and  _160
REMARK   72  A    between atoms: _162  and  _164
REMARK   73  A    between atoms: _164  and  _165
REMARK   74  A    between atoms: _164  and  _167
REMARK   75  A    between atoms: _167  and  _168
REMARK   76  A    between atoms: _178  and  _180
REMARK   77  A    between atoms: _180  and  _181
REMARK   78  A    between atoms: _183  and  _185
REMARK   79  A    between atoms: _185  and  _186
REMARK   80  A    between atoms: _185  and  _188
REMARK   81  A    between atoms: _188  and  _189
REMARK   82  A    between atoms: _194  and  _195
REMARK   83  A    between atoms: _197  and  _199
REMARK   84  A    between atoms: _199  and  _200
REMARK   85  A    between atoms: _202  and  _204
REMARK   86  A    between atoms: _204  and  _205
REMARK   87  A    between atoms: _204  and  _207
REMARK   88  A    between atoms: _207  and  _208
REMARK   89  A    between atoms: _209  and  _211
REMARK   90  A    between atoms: _211  and  _212
REMARK   91  A    between atoms: _215  and  _217
REMARK   92  A    between atoms: _217  and  _218
REMARK   93  A    between atoms: _217  and  _220
REMARK   94  A    between atoms: _220  and  _221
REMARK   95  A    between atoms: _221  and  _222
REMARK   96  A    between atoms: _225  and  _227
REMARK   97  A    between atoms: _227  and  _228
REMARK   98  A    between atoms: _227  and  _230
REMARK   99  A    between atoms: _230  and  _231
REMARK  100  A    between atoms: _237  and  _238
REMARK  101  A    between atoms: _243  and  _245
REMARK  102  A    between atoms: _245  and  _246
REMARK  103  A    between atoms: _248  and  _250
REMARK  104  A    between atoms: _250  and  _251
REMARK  105  A    between atoms: _250  and  _253
REMARK  106  A    between atoms: _256  and  _258
REMARK  107  A    between atoms: _258  and  _259
REMARK  108  A    between atoms: _258  and  _261
REMARK  109  A    between atoms: _261  and  _262
REMARK  110  A    between atoms: _267  and  _268
REMARK                            x       y       z     vdW  Elec       q    Type
REMARK                         _______ _______ _______ _____ _____    ______ ____
ROOT
ATOM      1  C   GLY A   3      92.079  83.589 -11.920  0.00  0.00    +0.243 C 
ATOM      2  O   GLY A   3      91.805  84.314 -10.960  0.00  0.00    -0.273 OA
ATOM      3  N   VAL A   4      91.157  83.083 -12.743  0.00  0.00    -0.297 N 
ATOM      4  H   VAL A   4      91.481  82.513 -13.550  0.00  0.00    +0.150 HD
ENDROOT
BRANCH   1   5
ATOM      5  CA  GLY A   3      93.533  83.248 -12.229  0.00  0.00    +0.176 C 
BRANCH   5   7
ATOM      6  C   PRO A   2      94.506  85.432 -12.548  0.00  0.00    +0.241 C 
ATOM      7  N   GLY A   3      94.453  84.305 -11.840  0.00  0.00    -0.295 N 
ATOM      8  H   GLY A   3      95.068  84.181 -11.011  0.00  0.00    +0.150 HD
ATOM      9  O   PRO A   2      93.840  85.603 -13.569  0.00  0.00    -0.273 OA
BRANCH   6  12
ATOM     10  C   ASN A   1      96.546  87.245 -14.151  0.00  0.00    +0.242 C 
ATOM     11  N   PRO A   2      95.766  87.525 -13.092  0.00  0.00    -0.272 N 
ATOM     12  CA  PRO A   2      95.481  86.518 -12.059  0.00  0.00    +0.152 C 
ATOM     13  CB  PRO A   2      94.887  87.355 -10.921  0.00  0.00    +0.031 C 
ATOM     14  CG  PRO A   2      94.148  88.456 -11.657  0.00  0.00    +0.024 C 
ATOM     15  CD  PRO A   2      95.111  88.818 -12.781  0.00  0.00    +0.094 C 
ATOM     16  O   ASN A   1      97.062  86.126 -14.314  0.00  0.00    -0.273 OA
BRANCH  10  17
ATOM     17  CA  ASN A   1      96.780  88.371 -15.161  0.00  0.00    +0.154 C 
BRANCH  17  18
ATOM     18  N   ASN A   1      97.784  89.300 -14.658  0.00  0.00    -0.238 NA
ATOM     19  H   ASN A   1      98.644  88.928 -14.207  0.00  0.00    +0.142 HD
ENDBRANCH  17  18
BRANCH  17  20
ATOM     20  CB  ASN A   1      97.227  87.795 -16.515  0.00  0.00    +0.111 C 
BRANCH  20  21
ATOM     21  CG  ASN A   1      97.376  88.869 -17.594  0.00  0.00    +0.221 C 
ATOM     22  OD1 ASN A   1      98.475  89.369 -17.840  0.00  0.00    -0.275 OA
ATOM     23  ND2 ASN A   1      96.278  89.223 -18.233  0.00  0.00    -0.329 N 
ATOM     24 HD21 ASN A   1      95.370  88.776 -17.994  0.00  0.00    +0.145 HD
ATOM     25 HD22 ASN A   1      96.320  89.950 -18.976  0.00  0.00    +0.145 HD
ENDBRANCH  20  21
ENDBRANCH  17  20
ENDBRANCH  10  17
ENDBRANCH   6  12
ENDBRANCH   5   7
ENDBRANCH   1   5
BRANCH   3  26
ATOM     26  CA  VAL A   4      89.712  83.285 -12.575  0.00  0.00    +0.149 C 
BRANCH  26  27
ATOM     27  C   VAL A   4      89.080  81.930 -12.218  0.00  0.00    +0.241 C 
ATOM     28  N   TYR A   5      88.127  81.968 -11.292  0.00  0.00    -0.298 N 
ATOM     29  H   TYR A   5      87.830  82.899 -10.935  0.00  0.00    +0.150 HD
ATOM     30  O   VAL A   4      89.428  80.889 -12.799  0.00  0.00    -0.273 OA
BRANCH  28  31
ATOM     31  CA  TYR A   5      87.471  80.781 -10.744  0.00  0.00    +0.141 C 
BRANCH  31  32
ATOM     32  C   TYR A   5      85.931  80.900 -10.722  0.00  0.00    +0.227 C 
ATOM     33  O   TYR A   5      85.389  82.006 -10.564  0.00  0.00    -0.286 OA
ENDBRANCH  31  32
BRANCH  31  34
ATOM     34  CB  TYR A   5      87.986  80.595  -9.297  0.00  0.00    +0.054 C 
BRANCH  34  35
ATOM     35  CG  TYR A   5      89.494  80.405  -9.200  0.00  0.00    -0.020 A 
ATOM     36  CD2 TYR A   5      90.375  81.502  -9.087  0.00  0.00    -0.001 A 
ATOM     37  CE2 TYR A   5      91.785  81.319  -9.118  0.00  0.00    +0.036 A 
ATOM     38  CZ  TYR A   5      92.305  80.025  -9.260  0.00  0.00    +0.134 A 
ATOM     39  CE1 TYR A   5      91.438  78.941  -9.357  0.00  0.00    +0.036 A 
ATOM     40  CD1 TYR A   5      90.051  79.133  -9.324  0.00  0.00    -0.001 A 
BRANCH  38  41
ATOM     41  OH  TYR A   5      93.664  79.787  -9.347  0.00  0.00    -0.506 OA
ATOM     42  HH  TYR A   5      94.154  80.643  -9.262  0.00  0.00    +0.292 HD
ENDBRANCH  38  41
ENDBRANCH  34  35
ENDBRANCH  31  34
ENDBRANCH  28  31
ENDBRANCH  26  27
BRANCH  26  43
ATOM     43  CB  VAL A   4      89.044  83.882 -13.841  0.00  0.00    +0.027 C 
ATOM     44  CG2 VAL A   4      87.590  84.253 -13.548  0.00  0.00    +0.002 C 
ATOM     45  CG1 VAL A   4      89.817  85.133 -14.297  0.00  0.00    +0.002 C 
ENDBRANCH  26  43
ENDBRANCH   3  26
TORSDOF 15
REMARK  Name = ../refined-set-2016/1utm/1utm_pocket.pdb
REMARK  110 active torsions:
REMARK  status: ('A' for Active; 'I' for Inactive)
REMARK    1  A    between atoms: _1  and  _3
REMARK    2  A    between atoms: _3  and  _4
REMARK    3  A    between atoms: _3  and  _6
REMARK    4  A    between atoms: _9  and  _11
REMARK    5  A    between atoms: _11  and  _12
REMARK    6  A    between atoms: _11  and  _14
REMARK    7  A    between atoms: _16  and  _18
REMARK    8  A    between atoms: _18  and  _19
REMARK    9  A    between atoms: _18  and  _21
REMARK   10  A    between atoms: _21  and  _22
REMARK   11  A    between atoms: _27  and  _29
REMARK   12  A    between atoms: _29  and  _30
REMARK   13  A    between atoms: _29  and  _32
REMARK   14  A    between atoms: _32  and  _33
REMARK   15  A    between atoms: _36  and  _38
REMARK   16  A    between atoms: _38  and  _39
REMARK   17  A    between atoms: _38  and  _41
REMARK   18  A    between atoms: _41  and  _42
REMARK   19  A    between atoms: _45  and  _47
REMARK   20  A    between atoms: _47  and  _48
REMARK   21  A    between atoms: _47  and  _50
REMARK   22  A    between atoms: _50  and  _51
REMARK   23  A    between atoms: _56  and  _57
REMARK   24  A    between atoms: _59  and  _61
REMARK   25  A    between atoms: _61  and  _62
REMARK   26  A    between atoms: _65  and  _67
REMARK   27  A    between atoms: _67  and  _68
REMARK   28  A    between atoms: _67  and  _70
REMARK   29  A    between atoms: _70  and  _71
REMARK   30  A    between atoms: _71  and  _72
REMARK   31  A    between atoms: _72  and  _73
REMARK   32  A    between atoms: _73  and  _74
REMARK   33  A    between atoms: _78  and  _80
REMARK   34  A    between atoms: _80  and  _81
REMARK   35  A    between atoms: _80  and  _83
REMARK   36  A    between atoms: _83  and  _84
REMARK   37  A    between atoms: _87  and  _89
REMARK   38  A    between atoms: _89  and  _90
REMARK   39  A    between atoms: _89  and  _92
REMARK   40  A    between atoms: _92  and  _93
REMARK   41  A    between atoms: _95  and  _97
REMARK   42  A    between atoms: _97  and  _98
REMARK   43  A    between atoms: _97  and  _100
REMARK   44  A    between atoms: _100  and  _101
REMARK   45  A    between atoms: _101  and  _208
REMARK   46  A    between atoms: _102  and  _104
REMARK   47  A    between atoms: _104  and  _105
REMARK   48  A    between atoms: _104  and  _107
REMARK   49  A    between atoms: _107  and  _108
REMARK   50  A    between atoms: _108  and  _109
REMARK   51  A    between atoms: _114  and  _116
REMARK   52  A    between atoms: _116  and  _117
REMARK   53  A    between atoms: _119  and  _121
REMARK   54  A    between atoms: _121  and  _122
REMARK   55  A    between atoms: _121  and  _124
REMARK   56  A    between atoms: _124  and  _125
REMARK   57  A    between atoms: _128  and  _130
REMARK   58  A    between atoms: _130  and  _131
REMARK   59  A    between atoms: _130  and  _133
REMARK   60  A    between atoms: _133  and  _134
REMARK   61  A    between atoms: _136  and  _138
REMARK   62  A    between atoms: _138  and  _139
REMARK   63  A    between atoms: _141  and  _143
REMARK   64  A    between atoms: _143  and  _144
REMARK   65  A    between atoms: _146  and  _148
REMARK   66  A    between atoms: _148  and  _149
REMARK   67  A    between atoms: _148  and  _151
REMARK   68  A    between atoms: _154  and  _156
REMARK   69  A    between atoms: _156  and  _157
REMARK   70  A    between atoms: _156  and  _159
REMARK   71  A    between atoms: _159  and  _160
REMARK   72  A    between atoms: _162  and  _164
REMARK   73  A    between atoms: _164  and  _165
REMARK   74  A    between atoms: _164  and  _167
REMARK   75  A    between atoms: _167  and  _168
REMARK   76  A    between atoms: _178  and  _180
REMARK   77  A    between atoms: _180  and  _181
REMARK   78  A    between atoms: _183  and  _185
REMARK   79  A    between atoms: _185  and  _186
REMARK   80  A    between atoms: _185  and  _188
REMARK   81  A    between atoms: _188  and  _189
REMARK   82  A    between atoms: _194  and  _195
REMARK   83  A    between atoms: _197  and  _199
REMARK   84  A    between atoms: _199  and  _200
REMARK   85  A    between atoms: _202  and  _204
REMARK   86  A    between atoms: _204  and  _205
REMARK   87  A    between atoms: _204  and  _207
REMARK   88  A    between atoms: _207  and  _208
REMARK   89  A    between atoms: _209  and  _211
REMARK   90  A    between atoms: _211  and  _212
REMARK   91  A    between atoms: _215  and  _217
REMARK   92  A    between atoms: _217  and  _218
REMARK   93  A    between atoms: _217  and  _220
REMARK   94  A    between atoms: _220  and  _221
REMARK   95  A    between atoms: _221  and  _222
REMARK   96  A    between atoms: _225  and  _227
REMARK   97  A    between atoms: _227  and  _228
REMARK   98  A    between atoms: _227  and  _230
REMARK   99  A    between atoms: _230  and  _231
REMARK  100  A    between atoms: _237  and  _238
REMARK  101  A    between atoms: _243  and  _245
REMARK  102  A    between atoms: _245  and  _246
REMARK  103  A    between atoms: _248  and  _250
REMARK  104  A    between atoms: _250  and  _251
REMARK  105  A    between atoms: _250  and  _253
REMARK  106  A    between atoms: _256  and  _258
REMARK  107  A    between atoms: _258  and  _259
REMARK  108  A    between atoms: _258  and  _261
REMARK  109  A    between atoms: _261  and  _262
REMARK  110  A    between atoms: _267  and  _268
REMARK                            x       y       z     vdW  Elec       q    Type
REMARK                         _______ _______ _______ _____ _____    ______ ____
ROOT
ATOM      1  O   HOH     1      97.994  84.482  -9.546  0.00  0.00    +0.000 OA
ENDROOT
TORSDOF 0
REMARK  Name = ../refined-set-2016/1utm/1utm_pocket.pdb
REMARK  110 active torsions:
REMARK  status: ('A' for Active; 'I' for Inactive)
REMARK    1  A    between atoms: _1  and  _3
REMARK    2  A    between atoms: _3  and  _4
REMARK    3  A    between atoms: _3  and  _6
REMARK    4  A    between atoms: _9  and  _11
REMARK    5  A    between atoms: _11  and  _12
REMARK    6  A    between atoms: _11  and  _14
REMARK    7  A    between atoms: _16  and  _18
REMARK    8  A    between atoms: _18  and  _19
REMARK    9  A    between atoms: _18  and  _21
REMARK   10  A    between atoms: _21  and  _22
REMARK   11  A    between atoms: _27  and  _29
REMARK   12  A    between atoms: _29  and  _30
REMARK   13  A    between atoms: _29  and  _32
REMARK   14  A    between atoms: _32  and  _33
REMARK   15  A    between atoms: _36  and  _38
REMARK   16  A    between atoms: _38  and  _39
REMARK   17  A    between atoms: _38  and  _41
REMARK   18  A    between atoms: _41  and  _42
REMARK   19  A    between atoms: _45  and  _47
REMARK   20  A    between atoms: _47  and  _48
REMARK   21  A    between atoms: _47  and  _50
REMARK   22  A    between atoms: _50  and  _51
REMARK   23  A    between atoms: _56  and  _57
REMARK   24  A    between atoms: _59  and  _61
REMARK   25  A    between atoms: _61  and  _62
REMARK   26  A    between atoms: _65  and  _67
REMARK   27  A    between atoms: _67  and  _68
REMARK   28  A    between atoms: _67  and  _70
REMARK   29  A    between atoms: _70  and  _71
REMARK   30  A    between atoms: _71  and  _72
REMARK   31  A    between atoms: _72  and  _73
REMARK   32  A    between atoms: _73  and  _74
REMARK   33  A    between atoms: _78  and  _80
REMARK   34  A    between atoms: _80  and  _81
REMARK   35  A    between atoms: _80  and  _83
REMARK   36  A    between atoms: _83  and  _84
REMARK   37  A    between atoms: _87  and  _89
REMARK   38  A    between atoms: _89  and  _90
REMARK   39  A    between atoms: _89  and  _92
REMARK   40  A    between atoms: _92  and  _93
REMARK   41  A    between atoms: _95  and  _97
REMARK   42  A    between atoms: _97  and  _98
REMARK   43  A    between atoms: _97  and  _100
REMARK   44  A    between atoms: _100  and  _101
REMARK   45  A    between atoms: _101  and  _208
REMARK   46  A    between atoms: _102  and  _104
REMARK   47  A    between atoms: _104  and  _105
REMARK   48  A    between atoms: _104  and  _107
REMARK   49  A    between atoms: _107  and  _108
REMARK   50  A    between atoms: _108  and  _109
REMARK   51  A    between atoms: _114  and  _116
REMARK   52  A    between atoms: _116  and  _117
REMARK   53  A    between atoms: _119  and  _121
REMARK   54  A    between atoms: _121  and  _122
REMARK   55  A    between atoms: _121  and  _124
REMARK   56  A    between atoms: _124  and  _125
REMARK   57  A    between atoms: _128  and  _130
REMARK   58  A    between atoms: _130  and  _131
REMARK   59  A    between atoms: _130  and  _133
REMARK   60  A    between atoms: _133  and  _134
REMARK   61  A    between atoms: _136  and  _138
REMARK   62  A    between atoms: _138  and  _139
REMARK   63  A    between atoms: _141  and  _143
REMARK   64  A    between atoms: _143  and  _144
REMARK   65  A    between atoms: _146  and  _148
REMARK   66  A    between atoms: _148  and  _149
REMARK   67  A    between atoms: _148  and  _151
REMARK   68  A    between atoms: _154  and  _156
REMARK   69  A    between atoms: _156  and  _157
REMARK   70  A    between atoms: _156  and  _159
REMARK   71  A    between atoms: _159  and  _160
REMARK   72  A    between atoms: _162  and  _164
REMARK   73  A    between atoms: _164  and  _165
REMARK   74  A    between atoms: _164  and  _167
REMARK   75  A    between atoms: _167  and  _168
REMARK   76  A    between atoms: _178  and  _180
REMARK   77  A    between atoms: _180  and  _181
REMARK   78  A    between atoms: _183  and  _185
REMARK   79  A    between atoms: _185  and  _186
REMARK   80  A    between atoms: _185  and  _188
REMARK   81  A    between atoms: _188  and  _189
REMARK   82  A    between atoms: _194  and  _195
REMARK   83  A    between atoms: _197  and  _199
REMARK   84  A    between atoms: _199  and  _200
REMARK   85  A    between atoms: _202  and  _204
REMARK   86  A    between atoms: _204  and  _205
REMARK   87  A    between atoms: _204  and  _207
REMARK   88  A    between atoms: _207  and  _208
REMARK   89  A    between atoms: _209  and  _211
REMARK   90  A    between atoms: _211  and  _212
REMARK   91  A    between atoms: _215  and  _217
REMARK   92  A    between atoms: _217  and  _218
REMARK   93  A    between atoms: _217  and  _220
REMARK   94  A    between atoms: _220  and  _221
REMARK   95  A    between atoms: _221  and  _222
REMARK   96  A    between atoms: _225  and  _227
REMARK   97  A    between atoms: _227  and  _228
REMARK   98  A    between atoms: _227  and  _230
REMARK   99  A    between atoms: _230  and  _231
REMARK  100  A    between atoms: _237  and  _238
REMARK  101  A    between atoms: _243  and  _245
REMARK  102  A    between atoms: _245  and  _246
REMARK  103  A    between atoms: _248  and  _250
REMARK  104  A    between atoms: _250  and  _251
REMARK  105  A    between atoms: _250  and  _253
REMARK  106  A    between atoms: _256  and  _258
REMARK  107  A    between atoms: _258  and  _259
REMARK  108  A    between atoms: _258  and  _261
REMARK  109  A    between atoms: _261  and  _262
REMARK  110  A    between atoms: _267  and  _268
REMARK                            x       y       z     vdW  Elec       q    Type
REMARK                         _______ _______ _______ _____ _____    ______ ____
ROOT
ATOM      1  O   HOH     1      98.962  84.962 -12.287  0.00  0.00    +0.000 OA
ENDROOT
TORSDOF 0
REMARK  Name = ../refined-set-2016/1utm/1utm_pocket.pdb
REMARK  110 active torsions:
REMARK  status: ('A' for Active; 'I' for Inactive)
REMARK    1  A    between atoms: _1  and  _3
REMARK    2  A    between atoms: _3  and  _4
REMARK    3  A    between atoms: _3  and  _6
REMARK    4  A    between atoms: _9  and  _11
REMARK    5  A    between atoms: _11  and  _12
REMARK    6  A    between atoms: _11  and  _14
REMARK    7  A    between atoms: _16  and  _18
REMARK    8  A    between atoms: _18  and  _19
REMARK    9  A    between atoms: _18  and  _21
REMARK   10  A    between atoms: _21  and  _22
REMARK   11  A    between atoms: _27  and  _29
REMARK   12  A    between atoms: _29  and  _30
REMARK   13  A    between atoms: _29  and  _32
REMARK   14  A    between atoms: _32  and  _33
REMARK   15  A    between atoms: _36  and  _38
REMARK   16  A    between atoms: _38  and  _39
REMARK   17  A    between atoms: _38  and  _41
REMARK   18  A    between atoms: _41  and  _42
REMARK   19  A    between atoms: _45  and  _47
REMARK   20  A    between atoms: _47  and  _48
REMARK   21  A    between atoms: _47  and  _50
REMARK   22  A    between atoms: _50  and  _51
REMARK   23  A    between atoms: _56  and  _57
REMARK   24  A    between atoms: _59  and  _61
REMARK   25  A    between atoms: _61  and  _62
REMARK   26  A    between atoms: _65  and  _67
REMARK   27  A    between atoms: _67  and  _68
REMARK   28  A    between atoms: _67  and  _70
REMARK   29  A    between atoms: _70  and  _71
REMARK   30  A    between atoms: _71  and  _72
REMARK   31  A    between atoms: _72  and  _73
REMARK   32  A    between atoms: _73  and  _74
REMARK   33  A    between atoms: _78  and  _80
REMARK   34  A    between atoms: _80  and  _81
REMARK   35  A    between atoms: _80  and  _83
REMARK   36  A    between atoms: _83  and  _84
REMARK   37  A    between atoms: _87  and  _89
REMARK   38  A    between atoms: _89  and  _90
REMARK   39  A    between atoms: _89  and  _92
REMARK   40  A    between atoms: _92  and  _93
REMARK   41  A    between atoms: _95  and  _97
REMARK   42  A    between atoms: _97  and  _98
REMARK   43  A    between atoms: _97  and  _100
REMARK   44  A    between atoms: _100  and  _101
REMARK   45  A    between atoms: _101  and  _208
REMARK   46  A    between atoms: _102  and  _104
REMARK   47  A    between atoms: _104  and  _105
REMARK   48  A    between atoms: _104  and  _107
REMARK   49  A    between atoms: _107  and  _108
REMARK   50  A    between atoms: _108  and  _109
REMARK   51  A    between atoms: _114  and  _116
REMARK   52  A    between atoms: _116  and  _117
REMARK   53  A    between atoms: _119  and  _121
REMARK   54  A    between atoms: _121  and  _122
REMARK   55  A    between atoms: _121  and  _124
REMARK   56  A    between atoms: _124  and  _125
REMARK   57  A    between atoms: _128  and  _130
REMARK   58  A    between atoms: _130  and  _131
REMARK   59  A    between atoms: _130  and  _133
REMARK   60  A    between atoms: _133  and  _134
REMARK   61  A    between atoms: _136  and  _138
REMARK   62  A    between atoms: _138  and  _139
REMARK   63  A    between atoms: _141  and  _143
REMARK   64  A    between atoms: _143  and  _144
REMARK   65  A    between atoms: _146  and  _148
REMARK   66  A    between atoms: _148  and  _149
REMARK   67  A    between atoms: _148  and  _151
REMARK   68  A    between atoms: _154  and  _156
REMARK   69  A    between atoms: _156  and  _157
REMARK   70  A    between atoms: _156  and  _159
REMARK   71  A    between atoms: _159  and  _160
REMARK   72  A    between atoms: _162  and  _164
REMARK   73  A    between atoms: _164  and  _165
REMARK   74  A    between atoms: _164  and  _167
REMARK   75  A    between atoms: _167  and  _168
REMARK   76  A    between atoms: _178  and  _180
REMARK   77  A    between atoms: _180  and  _181
REMARK   78  A    between atoms: _183  and  _185
REMARK   79  A    between atoms: _185  and  _186
REMARK   80  A    between atoms: _185  and  _188
REMARK   81  A    between atoms: _188  and  _189
REMARK   82  A    between atoms: _194  and  _195
REMARK   83  A    between atoms: _197  and  _199
REMARK   84  A    between atoms: _199  and  _200
REMARK   85  A    between atoms: _202  and  _204
REMARK   86  A    between atoms: _204  and  _205
REMARK   87  A    between atoms: _204  and  _207
REMARK   88  A    between atoms: _207  and  _208
REMARK   89  A    between atoms: _209  and  _211
REMARK   90  A    between atoms: _211  and  _212
REMARK   91  A    between atoms: _215  and  _217
REMARK   92  A    between atoms: _217  and  _218
REMARK   93  A    between atoms: _217  and  _220
REMARK   94  A    between atoms: _220  and  _221
REMARK   95  A    between atoms: _221  and  _222
REMARK   96  A    between atoms: _225  and  _227
REMARK   97  A    between atoms: _227  and  _228
REMARK   98  A    between atoms: _227  and  _230
REMARK   99  A    between atoms: _230  and  _231
REMARK  100  A    between atoms: _237  and  _238
REMARK  101  A    between atoms: _243  and  _245
REMARK  102  A    between atoms: _245  and  _246
REMARK  103  A    between atoms: _248  and  _250
REMARK  104  A    between atoms: _250  and  _251
REMARK  105  A    between atoms: _250  and  _253
REMARK  106  A    between atoms: _256  and  _258
REMARK  107  A    between atoms: _258  and  _259
REMARK  108  A    between atoms: _258  and  _261
REMARK  109  A    between atoms: _261  and  _262
REMARK  110  A    between atoms: _267  and  _268
REMARK                            x       y       z     vdW  Elec       q    Type
REMARK                         _______ _______ _______ _____ _____    ______ ____
ROOT
ATOM      1  O   HOH     1      98.751  84.412 -15.946  0.00  0.00    +0.000 OA
ENDROOT
TORSDOF 0
REMARK  Name = ../refined-set-2016/1utm/1utm_pocket.pdb
REMARK  110 active torsions:
REMARK  status: ('A' for Active; 'I' for Inactive)
REMARK    1  A    between atoms: _1  and  _3
REMARK    2  A    between atoms: _3  and  _4
REMARK    3  A    between atoms: _3  and  _6
REMARK    4  A    between atoms: _9  and  _11
REMARK    5  A    between atoms: _11  and  _12
REMARK    6  A    between atoms: _11  and  _14
REMARK    7  A    between atoms: _16  and  _18
REMARK    8  A    between atoms: _18  and  _19
REMARK    9  A    between atoms: _18  and  _21
REMARK   10  A    between atoms: _21  and  _22
REMARK   11  A    between atoms: _27  and  _29
REMARK   12  A    between atoms: _29  and  _30
REMARK   13  A    between atoms: _29  and  _32
REMARK   14  A    between atoms: _32  and  _33
REMARK   15  A    between atoms: _36  and  _38
REMARK   16  A    between atoms: _38  and  _39
REMARK   17  A    between atoms: _38  and  _41
REMARK   18  A    between atoms: _41  and  _42
REMARK   19  A    between atoms: _45  and  _47
REMARK   20  A    between atoms: _47  and  _48
REMARK   21  A    between atoms: _47  and  _50
REMARK   22  A    between atoms: _50  and  _51
REMARK   23  A    between atoms: _56  and  _57
REMARK   24  A    between atoms: _59  and  _61
REMARK   25  A    between atoms: _61  and  _62
REMARK   26  A    between atoms: _65  and  _67
REMARK   27  A    between atoms: _67  and  _68
REMARK   28  A    between atoms: _67  and  _70
REMARK   29  A    between atoms: _70  and  _71
REMARK   30  A    between atoms: _71  and  _72
REMARK   31  A    between atoms: _72  and  _73
REMARK   32  A    between atoms: _73  and  _74
REMARK   33  A    between atoms: _78  and  _80
REMARK   34  A    between atoms: _80  and  _81
REMARK   35  A    between atoms: _80  and  _83
REMARK   36  A    between atoms: _83  and  _84
REMARK   37  A    between atoms: _87  and  _89
REMARK   38  A    between atoms: _89  and  _90
REMARK   39  A    between atoms: _89  and  _92
REMARK   40  A    between atoms: _92  and  _93
REMARK   41  A    between atoms: _95  and  _97
REMARK   42  A    between atoms: _97  and  _98
REMARK   43  A    between atoms: _97  and  _100
REMARK   44  A    between atoms: _100  and  _101
REMARK   45  A    between atoms: _101  and  _208
REMARK   46  A    between atoms: _102  and  _104
REMARK   47  A    between atoms: _104  and  _105
REMARK   48  A    between atoms: _104  and  _107
REMARK   49  A    between atoms: _107  and  _108
REMARK   50  A    between atoms: _108  and  _109
REMARK   51  A    between atoms: _114  and  _116
REMARK   52  A    between atoms: _116  and  _117
REMARK   53  A    between atoms: _119  and  _121
REMARK   54  A    between atoms: _121  and  _122
REMARK   55  A    between atoms: _121  and  _124
REMARK   56  A    between atoms: _124  and  _125
REMARK   57  A    between atoms: _128  and  _130
REMARK   58  A    between atoms: _130  and  _131
REMARK   59  A    between atoms: _130  and  _133
REMARK   60  A    between atoms: _133  and  _134
REMARK   61  A    between atoms: _136  and  _138
REMARK   62  A    between atoms: _138  and  _139
REMARK   63  A    between atoms: _141  and  _143
REMARK   64  A    between atoms: _143  and  _144
REMARK   65  A    between atoms: _146  and  _148
REMARK   66  A    between atoms: _148  and  _149
REMARK   67  A    between atoms: _148  and  _151
REMARK   68  A    between atoms: _154  and  _156
REMARK   69  A    between atoms: _156  and  _157
REMARK   70  A    between atoms: _156  and  _159
REMARK   71  A    between atoms: _159  and  _160
REMARK   72  A    between atoms: _162  and  _164
REMARK   73  A    between atoms: _164  and  _165
REMARK   74  A    between atoms: _164  and  _167
REMARK   75  A    between atoms: _167  and  _168
REMARK   76  A    between atoms: _178  and  _180
REMARK   77  A    between atoms: _180  and  _181
REMARK   78  A    between atoms: _183  and  _185
REMARK   79  A    between atoms: _185  and  _186
REMARK   80  A    between atoms: _185  and  _188
REMARK   81  A    between atoms: _188  and  _189
REMARK   82  A    between atoms: _194  and  _195
REMARK   83  A    between atoms: _197  and  _199
REMARK   84  A    between atoms: _199  and  _200
REMARK   85  A    between atoms: _202  and  _204
REMARK   86  A    between atoms: _204  and  _205
REMARK   87  A    between atoms: _204  and  _207
REMARK   88  A    between atoms: _207  and  _208
REMARK   89  A    between atoms: _209  and  _211
REMARK   90  A    between atoms: _211  and  _212
REMARK   91  A    between atoms: _215  and  _217
REMARK   92  A    between atoms: _217  and  _218
REMARK   93  A    between atoms: _217  and  _220
REMARK   94  A    between atoms: _220  and  _221
REMARK   95  A    between atoms: _221  and  _222
REMARK   96  A    between atoms: _225  and  _227
REMARK   97  A    between atoms: _227  and  _228
REMARK   98  A    between atoms: _227  and  _230
REMARK   99  A    between atoms: _230  and  _231
REMARK  100  A    between atoms: _237  and  _238
REMARK  101  A    between atoms: _243  and  _245
REMARK  102  A    between atoms: _245  and  _246
REMARK  103  A    between atoms: _248  and  _250
REMARK  104  A    between atoms: _250  and  _251
REMARK  105  A    between atoms: _250  and  _253
REMARK  106  A    between atoms: _256  and  _258
REMARK  107  A    between atoms: _258  and  _259
REMARK  108  A    between atoms: _258  and  _261
REMARK  109  A    between atoms: _261  and  _262
REMARK  110  A    between atoms: _267  and  _268
REMARK                            x       y       z     vdW  Elec       q    Type
REMARK                         _______ _______ _______ _____ _____    ______ ____
ROOT
ATOM      1  O   HOH     1      95.484  81.782  -9.111  0.00  0.00    +0.000 OA
ENDROOT
TORSDOF 0
REMARK  Name = ../refined-set-2016/1utm/1utm_pocket.pdb
REMARK  110 active torsions:
REMARK  status: ('A' for Active; 'I' for Inactive)
REMARK    1  A    between atoms: _1  and  _3
REMARK    2  A    between atoms: _3  and  _4
REMARK    3  A    between atoms: _3  and  _6
REMARK    4  A    between atoms: _9  and  _11
REMARK    5  A    between atoms: _11  and  _12
REMARK    6  A    between atoms: _11  and  _14
REMARK    7  A    between atoms: _16  and  _18
REMARK    8  A    between atoms: _18  and  _19
REMARK    9  A    between atoms: _18  and  _21
REMARK   10  A    between atoms: _21  and  _22
REMARK   11  A    between atoms: _27  and  _29
REMARK   12  A    between atoms: _29  and  _30
REMARK   13  A    between atoms: _29  and  _32
REMARK   14  A    between atoms: _32  and  _33
REMARK   15  A    between atoms: _36  and  _38
REMARK   16  A    between atoms: _38  and  _39
REMARK   17  A    between atoms: _38  and  _41
REMARK   18  A    between atoms: _41  and  _42
REMARK   19  A    between atoms: _45  and  _47
REMARK   20  A    between atoms: _47  and  _48
REMARK   21  A    between atoms: _47  and  _50
REMARK   22  A    between atoms: _50  and  _51
REMARK   23  A    between atoms: _56  and  _57
REMARK   24  A    between atoms: _59  and  _61
REMARK   25  A    between atoms: _61  and  _62
REMARK   26  A    between atoms: _65  and  _67
REMARK   27  A    between atoms: _67  and  _68
REMARK   28  A    between atoms: _67  and  _70
REMARK   29  A    between atoms: _70  and  _71
REMARK   30  A    between atoms: _71  and  _72
REMARK   31  A    between atoms: _72  and  _73
REMARK   32  A    between atoms: _73  and  _74
REMARK   33  A    between atoms: _78  and  _80
REMARK   34  A    between atoms: _80  and  _81
REMARK   35  A    between atoms: _80  and  _83
REMARK   36  A    between atoms: _83  and  _84
REMARK   37  A    between atoms: _87  and  _89
REMARK   38  A    between atoms: _89  and  _90
REMARK   39  A    between atoms: _89  and  _92
REMARK   40  A    between atoms: _92  and  _93
REMARK   41  A    between atoms: _95  and  _97
REMARK   42  A    between atoms: _97  and  _98
REMARK   43  A    between atoms: _97  and  _100
REMARK   44  A    between atoms: _100  and  _101
REMARK   45  A    between atoms: _101  and  _208
REMARK   46  A    between atoms: _102  and  _104
REMARK   47  A    between atoms: _104  and  _105
REMARK   48  A    between atoms: _104  and  _107
REMARK   49  A    between atoms: _107  and  _108
REMARK   50  A    between atoms: _108  and  _109
REMARK   51  A    between atoms: _114  and  _116
REMARK   52  A    between atoms: _116  and  _117
REMARK   53  A    between atoms: _119  and  _121
REMARK   54  A    between atoms: _121  and  _122
REMARK   55  A    between atoms: _121  and  _124
REMARK   56  A    between atoms: _124  and  _125
REMARK   57  A    between atoms: _128  and  _130
REMARK   58  A    between atoms: _130  and  _131
REMARK   59  A    between atoms: _130  and  _133
REMARK   60  A    between atoms: _133  and  _134
REMARK   61  A    between atoms: _136  and  _138
REMARK   62  A    between atoms: _138  and  _139
REMARK   63  A    between atoms: _141  and  _143
REMARK   64  A    between atoms: _143  and  _144
REMARK   65  A    between atoms: _146  and  _148
REMARK   66  A    between atoms: _148  and  _149
REMARK   67  A    between atoms: _148  and  _151
REMARK   68  A    between atoms: _154  and  _156
REMARK   69  A    between atoms: _156  and  _157
REMARK   70  A    between atoms: _156  and  _159
REMARK   71  A    between atoms: _159  and  _160
REMARK   72  A    between atoms: _162  and  _164
REMARK   73  A    between atoms: _164  and  _165
REMARK   74  A    between atoms: _164  and  _167
REMARK   75  A    between atoms: _167  and  _168
REMARK   76  A    between atoms: _178  and  _180
REMARK   77  A    between atoms: _180  and  _181
REMARK   78  A    between atoms: _183  and  _185
REMARK   79  A    between atoms: _185  and  _186
REMARK   80  A    between atoms: _185  and  _188
REMARK   81  A    between atoms: _188  and  _189
REMARK   82  A    between atoms: _194  and  _195
REMARK   83  A    between atoms: _197  and  _199
REMARK   84  A    between atoms: _199  and  _200
REMARK   85  A    between atoms: _202  and  _204
REMARK   86  A    between atoms: _204  and  _205
REMARK   87  A    between atoms: _204  and  _207
REMARK   88  A    between atoms: _207  and  _208
REMARK   89  A    between atoms: _209  and  _211
REMARK   90  A    between atoms: _211  and  _212
REMARK   91  A    between atoms: _215  and  _217
REMARK   92  A    between atoms: _217  and  _218
REMARK   93  A    between atoms: _217  and  _220
REMARK   94  A    between atoms: _220  and  _221
REMARK   95  A    between atoms: _221  and  _222
REMARK   96  A    between atoms: _225  and  _227
REMARK   97  A    between atoms: _227  and  _228
REMARK   98  A    between atoms: _227  and  _230
REMARK   99  A    between atoms: _230  and  _231
REMARK  100  A    between atoms: _237  and  _238
REMARK  101  A    between atoms: _243  and  _245
REMARK  102  A    between atoms: _245  and  _246
REMARK  103  A    between atoms: _248  and  _250
REMARK  104  A    between atoms: _250  and  _251
REMARK  105  A    between atoms: _250  and  _253
REMARK  106  A    between atoms: _256  and  _258
REMARK  107  A    between atoms: _258  and  _259
REMARK  108  A    between atoms: _258  and  _261
REMARK  109  A    between atoms: _261  and  _262
REMARK  110  A    between atoms: _267  and  _268
REMARK                            x       y       z     vdW  Elec       q    Type
REMARK                         _______ _______ _______ _____ _____    ______ ____
ROOT
ATOM      1  O   HOH     1      92.178  79.825 -12.865  0.00  0.00    +0.000 OA
ENDROOT
TORSDOF 0
REMARK  Name = ../refined-set-2016/1utm/1utm_pocket.pdb
REMARK  110 active torsions:
REMARK  status: ('A' for Active; 'I' for Inactive)
REMARK    1  A    between atoms: _1  and  _3
REMARK    2  A    between atoms: _3  and  _4
REMARK    3  A    between atoms: _3  and  _6
REMARK    4  A    between atoms: _9  and  _11
REMARK    5  A    between atoms: _11  and  _12
REMARK    6  A    between atoms: _11  and  _14
REMARK    7  A    between atoms: _16  and  _18
REMARK    8  A    between atoms: _18  and  _19
REMARK    9  A    between atoms: _18  and  _21
REMARK   10  A    between atoms: _21  and  _22
REMARK   11  A    between atoms: _27  and  _29
REMARK   12  A    between atoms: _29  and  _30
REMARK   13  A    between atoms: _29  and  _32
REMARK   14  A    between atoms: _32  and  _33
REMARK   15  A    between atoms: _36  and  _38
REMARK   16  A    between atoms: _38  and  _39
REMARK   17  A    between atoms: _38  and  _41
REMARK   18  A    between atoms: _41  and  _42
REMARK   19  A    between atoms: _45  and  _47
REMARK   20  A    between atoms: _47  and  _48
REMARK   21  A    between atoms: _47  and  _50
REMARK   22  A    between atoms: _50  and  _51
REMARK   23  A    between atoms: _56  and  _57
REMARK   24  A    between atoms: _59  and  _61
REMARK   25  A    between atoms: _61  and  _62
REMARK   26  A    between atoms: _65  and  _67
REMARK   27  A    between atoms: _67  and  _68
REMARK   28  A    between atoms: _67  and  _70
REMARK   29  A    between atoms: _70  and  _71
REMARK   30  A    between atoms: _71  and  _72
REMARK   31  A    between atoms: _72  and  _73
REMARK   32  A    between atoms: _73  and  _74
REMARK   33  A    between atoms: _78  and  _80
REMARK   34  A    between atoms: _80  and  _81
REMARK   35  A    between atoms: _80  and  _83
REMARK   36  A    between atoms: _83  and  _84
REMARK   37  A    between atoms: _87  and  _89
REMARK   38  A    between atoms: _89  and  _90
REMARK   39  A    between atoms: _89  and  _92
REMARK   40  A    between atoms: _92  and  _93
REMARK   41  A    between atoms: _95  and  _97
REMARK   42  A    between atoms: _97  and  _98
REMARK   43  A    between atoms: _97  and  _100
REMARK   44  A    between atoms: _100  and  _101
REMARK   45  A    between atoms: _101  and  _208
REMARK   46  A    between atoms: _102  and  _104
REMARK   47  A    between atoms: _104  and  _105
REMARK   48  A    between atoms: _104  and  _107
REMARK   49  A    between atoms: _107  and  _108
REMARK   50  A    between atoms: _108  and  _109
REMARK   51  A    between atoms: _114  and  _116
REMARK   52  A    between atoms: _116  and  _117
REMARK   53  A    between atoms: _119  and  _121
REMARK   54  A    between atoms: _121  and  _122
REMARK   55  A    between atoms: _121  and  _124
REMARK   56  A    between atoms: _124  and  _125
REMARK   57  A    between atoms: _128  and  _130
REMARK   58  A    between atoms: _130  and  _131
REMARK   59  A    between atoms: _130  and  _133
REMARK   60  A    between atoms: _133  and  _134
REMARK   61  A    between atoms: _136  and  _138
REMARK   62  A    between atoms: _138  and  _139
REMARK   63  A    between atoms: _141  and  _143
REMARK   64  A    between atoms: _143  and  _144
REMARK   65  A    between atoms: _146  and  _148
REMARK   66  A    between atoms: _148  and  _149
REMARK   67  A    between atoms: _148  and  _151
REMARK   68  A    between atoms: _154  and  _156
REMARK   69  A    between atoms: _156  and  _157
REMARK   70  A    between atoms: _156  and  _159
REMARK   71  A    between atoms: _159  and  _160
REMARK   72  A    between atoms: _162  and  _164
REMARK   73  A    between atoms: _164  and  _165
REMARK   74  A    between atoms: _164  and  _167
REMARK   75  A    between atoms: _167  and  _168
REMARK   76  A    between atoms: _178  and  _180
REMARK   77  A    between atoms: _180  and  _181
REMARK   78  A    between atoms: _183  and  _185
REMARK   79  A    between atoms: _185  and  _186
REMARK   80  A    between atoms: _185  and  _188
REMARK   81  A    between atoms: _188  and  _189
REMARK   82  A    between atoms: _194  and  _195
REMARK   83  A    between atoms: _197  and  _199
REMARK   84  A    between atoms: _199  and  _200
REMARK   85  A    between atoms: _202  and  _204
REMARK   86  A    between atoms: _204  and  _205
REMARK   87  A    between atoms: _204  and  _207
REMARK   88  A    between atoms: _207  and  _208
REMARK   89  A    between atoms: _209  and  _211
REMARK   90  A    between atoms: _211  and  _212
REMARK   91  A    between atoms: _215  and  _217
REMARK   92  A    between atoms: _217  and  _218
REMARK   93  A    between atoms: _217  and  _220
REMARK   94  A    between atoms: _220  and  _221
REMARK   95  A    between atoms: _221  and  _222
REMARK   96  A    between atoms: _225  and  _227
REMARK   97  A    between atoms: _227  and  _228
REMARK   98  A    between atoms: _227  and  _230
REMARK   99  A    between atoms: _230  and  _231
REMARK  100  A    between atoms: _237  and  _238
REMARK  101  A    between atoms: _243  and  _245
REMARK  102  A    between atoms: _245  and  _246
REMARK  103  A    between atoms: _248  and  _250
REMARK  104  A    between atoms: _250  and  _251
REMARK  105  A    between atoms: _250  and  _253
REMARK  106  A    between atoms: _256  and  _258
REMARK  107  A    between atoms: _258  and  _259
REMARK  108  A    between atoms: _258  and  _261
REMARK  109  A    between atoms: _261  and  _262
REMARK  110  A    between atoms: _267  and  _268
REMARK                            x       y       z     vdW  Elec       q    Type
REMARK                         _______ _______ _______ _____ _____    ______ ____
ROOT
ATOM      1  O   HOH     1      95.714  82.610 -15.192  0.00  0.00    +0.000 OA
ENDROOT
TORSDOF 0
