REMARK  Name = ../refined-set-2016/1tok/1tok_pocket.pdb
REMARK  134 active torsions:
REMARK  status: ('A' for Active; 'I' for Inactive)
REMARK    1  A    between atoms: _1  and  _3
REMARK    2  A    between atoms: _3  and  _4
REMARK    3  A    between atoms: _3  and  _6
REMARK    4  A    between atoms: _6  and  _7
REMARK    5  A    between atoms: _11  and  _12
REMARK    6  A    between atoms: _17  and  _19
REMARK    7  A    between atoms: _19  and  _20
REMARK    8  A    between atoms: _19  and  _22
REMARK    9  A    between atoms: _22  and  _23
REMARK   10  A    between atoms: _26  and  _28
REMARK   11  A    between atoms: _28  and  _29
REMARK   12  A    between atoms: _28  and  _31
REMARK   13  A    between atoms: _31  and  _32
REMARK   14  A    between atoms: _35  and  _37
REMARK   15  A    between atoms: _37  and  _38
REMARK   16  A    between atoms: _40  and  _42
REMARK   17  A    between atoms: _42  and  _43
REMARK   18  A    between atoms: _42  and  _45
REMARK   19  A    between atoms: _45  and  _46
REMARK   20  A    between atoms: _49  and  _51
REMARK   21  A    between atoms: _51  and  _52
REMARK   22  A    between atoms: _51  and  _54
REMARK   23  A    between atoms: _54  and  _55
REMARK   24  A    between atoms: _58  and  _60
REMARK   25  A    between atoms: _60  and  _61
REMARK   26  A    between atoms: _63  and  _65
REMARK   27  A    between atoms: _65  and  _66
REMARK   28  A    between atoms: _65  and  _68
REMARK   29  A    between atoms: _68  and  _69
REMARK   30  A    between atoms: _72  and  _74
REMARK   31  A    between atoms: _74  and  _75
REMARK   32  A    between atoms: _77  and  _79
REMARK   33  A    between atoms: _79  and  _80
REMARK   34  A    between atoms: _79  and  _82
REMARK   35  A    between atoms: _85  and  _87
REMARK   36  A    between atoms: _87  and  _88
REMARK   37  A    between atoms: _90  and  _92
REMARK   38  A    between atoms: _92  and  _93
REMARK   39  A    between atoms: _92  and  _95
REMARK   40  A    between atoms: _95  and  _96
REMARK   41  A    between atoms: _98  and  _100
REMARK   42  A    between atoms: _100  and  _101
REMARK   43  A    between atoms: _100  and  _103
REMARK   44  A    between atoms: _103  and  _104
REMARK   45  A    between atoms: _115  and  _116
REMARK   46  A    between atoms: _121  and  _123
REMARK   47  A    between atoms: _123  and  _124
REMARK   48  A    between atoms: _123  and  _126
REMARK   49  A    between atoms: _126  and  _127
REMARK   50  A    between atoms: _132  and  _134
REMARK   51  A    between atoms: _134  and  _135
REMARK   52  A    between atoms: _134  and  _137
REMARK   53  A    between atoms: _137  and  _138
REMARK   54  A    between atoms: _144  and  _145
REMARK   55  A    between atoms: _150  and  _152
REMARK   56  A    between atoms: _152  and  _153
REMARK   57  A    between atoms: _156  and  _158
REMARK   58  A    between atoms: _158  and  _159
REMARK   59  A    between atoms: _158  and  _161
REMARK   60  A    between atoms: _161  and  _162
REMARK   61  A    between atoms: _167  and  _168
REMARK   62  A    between atoms: _170  and  _172
REMARK   63  A    between atoms: _172  and  _173
REMARK   64  A    between atoms: _172  and  _175
REMARK   65  A    between atoms: _175  and  _176
REMARK   66  A    between atoms: _183  and  _184
REMARK   67  A    between atoms: _184  and  _200
REMARK   68  A    between atoms: _185  and  _187
REMARK   69  A    between atoms: _187  and  _188
REMARK   70  A    between atoms: _188  and  _189
REMARK   71  A    between atoms: _193  and  _195
REMARK   72  A    between atoms: _195  and  _196
REMARK   73  A    between atoms: _195  and  _203
REMARK   74  A    between atoms: _196  and  _197
REMARK   75  A    between atoms: _197  and  _198
REMARK   76  A    between atoms: _198  and  _199
REMARK   77  A    between atoms: _199  and  _200
REMARK   78  A    between atoms: _205  and  _207
REMARK   79  A    between atoms: _207  and  _208
REMARK   80  A    between atoms: _207  and  _210
REMARK   81  A    between atoms: _210  and  _211
REMARK   82  A    between atoms: _216  and  _217
REMARK   83  A    between atoms: _219  and  _221
REMARK   84  A    between atoms: _221  and  _222
REMARK   85  A    between atoms: _221  and  _224
REMARK   86  A    between atoms: _224  and  _225
REMARK   87  A    between atoms: _225  and  _226
REMARK   88  A    between atoms: _226  and  _227
REMARK   89  A    between atoms: _236  and  _238
REMARK   90  A    between atoms: _238  and  _239
REMARK   91  A    between atoms: _238  and  _241
REMARK   92  A    between atoms: _241  and  _242
REMARK   93  A    between atoms: _242  and  _243
REMARK   94  A    between atoms: _245  and  _247
REMARK   95  A    between atoms: _247  and  _248
REMARK   96  A    between atoms: _247  and  _250
REMARK   97  A    between atoms: _250  and  _251
REMARK   98  A    between atoms: _257  and  _259
REMARK   99  A    between atoms: _259  and  _260
REMARK  100  A    between atoms: _259  and  _262
REMARK  101  A    between atoms: _265  and  _267
REMARK  102  A    between atoms: _267  and  _268
REMARK  103  A    between atoms: _267  and  _270
REMARK  104  A    between atoms: _270  and  _271
REMARK  105  A    between atoms: _271  and  _272
REMARK  106  A    between atoms: _272  and  _273
REMARK  107  A    between atoms: _282  and  _284
REMARK  108  A    between atoms: _284  and  _285
REMARK  109  A    between atoms: _284  and  _287
REMARK  110  A    between atoms: _287  and  _288
REMARK  111  A    between atoms: _293  and  _295
REMARK  112  A    between atoms: _295  and  _296
REMARK  113  A    between atoms: _295  and  _298
REMARK  114  A    between atoms: _298  and  _299
REMARK  115  A    between atoms: _304  and  _305
REMARK  116  A    between atoms: _307  and  _309
REMARK  117  A    between atoms: _309  and  _310
REMARK  118  A    between atoms: _309  and  _312
REMARK  119  A    between atoms: _312  and  _313
REMARK  120  A    between atoms: _313  and  _314
REMARK  121  A    between atoms: _314  and  _315
REMARK  122  A    between atoms: _324  and  _326
REMARK  123  A    between atoms: _326  and  _327
REMARK  124  A    between atoms: _326  and  _329
REMARK  125  A    between atoms: _329  and  _330
REMARK  126  A    between atoms: _335  and  _336
REMARK  127  A    between atoms: _338  and  _340
REMARK  128  A    between atoms: _340  and  _341
REMARK  129  A    between atoms: _340  and  _343
REMARK  130  A    between atoms: _343  and  _344
REMARK  131  A    between atoms: _346  and  _348
REMARK  132  A    between atoms: _348  and  _349
REMARK  133  A    between atoms: _348  and  _351
REMARK  134  A    between atoms: _351  and  _352
REMARK                            x       y       z     vdW  Elec       q    Type
REMARK                         _______ _______ _______ _____ _____    ______ ____
ROOT
ATOM      1  C   ILE A   3      41.920  15.972  -1.642  0.00  0.00    +0.241 C 
ATOM      2  N   LEU A   4      41.848  17.089  -0.919  0.00  0.00    -0.297 N 
ATOM      3  H   LEU A   4      41.145  17.177  -0.158  0.00  0.00    +0.150 HD
ATOM      4  O   ILE A   3      42.828  15.774  -2.458  0.00  0.00    -0.273 OA
ENDROOT
BRANCH   2   5
ATOM      5  CA  LEU A   4      42.763  18.184  -1.205  0.00  0.00    +0.149 C 
BRANCH   5   6
ATOM      6  C   LEU A   4      44.202  17.880  -0.777  0.00  0.00    +0.241 C 
ATOM      7  N   GLY A   5      44.355  17.016   0.224  0.00  0.00    -0.295 N 
ATOM      8  H   GLY A   5      43.512  16.677   0.729  0.00  0.00    +0.150 HD
ATOM      9  O   LEU A   4      45.151  18.438  -1.345  0.00  0.00    -0.273 OA
BRANCH   7  10
ATOM     10  CA  GLY A   5      45.672  16.528   0.637  0.00  0.00    +0.176 C 
BRANCH  10  11
ATOM     11  C   GLY A   5      46.446  15.818  -0.486  0.00  0.00    +0.243 C 
ATOM     12  O   GLY A   5      47.671  15.689  -0.400  0.00  0.00    -0.273 OA
ATOM     13  N   LEU A   6      45.756  15.363  -1.536  0.00  0.00    -0.298 N 
ATOM     14  H   LEU A   6      44.725  15.496  -1.566  0.00  0.00    +0.150 HD
BRANCH  13  15
ATOM     15  CA  LEU A   6      46.435  14.672  -2.659  0.00  0.00    +0.137 C 
BRANCH  15  16
ATOM     16  C   LEU A   6      47.300  15.571  -3.549  0.00  0.00    +0.227 C 
ATOM     17  O   LEU A   6      48.320  15.116  -4.077  0.00  0.00    -0.286 OA
ENDBRANCH  15  16
BRANCH  15  18
ATOM     18  CB  LEU A   6      45.448  13.892  -3.527  0.00  0.00    +0.028 C 
BRANCH  18  19
ATOM     19  CG  LEU A   6      44.748  12.700  -2.886  0.00  0.00    +0.002 C 
ATOM     20  CD2 LEU A   6      45.776  11.619  -2.499  0.00  0.00    +0.000 C 
ATOM     21  CD1 LEU A   6      43.707  12.123  -3.856  0.00  0.00    +0.000 C 
ENDBRANCH  18  19
ENDBRANCH  15  18
ENDBRANCH  13  15
ENDBRANCH  10  11
ENDBRANCH   7  10
ENDBRANCH   5   6
BRANCH   5  22
ATOM     22  CB  LEU A   4      42.276  19.500  -0.575  0.00  0.00    +0.029 C 
BRANCH  22  23
ATOM     23  CG  LEU A   4      40.938  20.017  -1.130  0.00  0.00    +0.002 C 
ATOM     24  CD2 LEU A   4      40.650  21.400  -0.549  0.00  0.00    +0.000 C 
ATOM     25  CD1 LEU A   4      40.903  20.064  -2.672  0.00  0.00    +0.000 C 
ENDBRANCH  22  23
ENDBRANCH   5  22
ENDBRANCH   2   5
BRANCH   1  26
ATOM     26  CA  ILE A   3      40.831  14.932  -1.415  0.00  0.00    +0.149 C 
BRANCH  26  28
ATOM     27  C   PRO A   2      41.363  13.478   0.444  0.00  0.00    +0.241 C 
ATOM     28  N   ILE A   3      40.793  14.594  -0.003  0.00  0.00    -0.297 N 
ATOM     29  H   ILE A   3      40.315  15.231   0.666  0.00  0.00    +0.150 HD
ATOM     30  O   PRO A   2      41.916  12.680  -0.306  0.00  0.00    -0.273 OA
BRANCH  27  36
ATOM     31  C   ASP A   1      42.170  15.352   2.705  0.00  0.00    +0.242 C 
ATOM     32  N   PRO A   2      41.206  14.432   2.758  0.00  0.00    -0.272 N 
ATOM     33  CD  PRO A   2      40.020  14.443   3.642  0.00  0.00    +0.094 C 
ATOM     34  CG  PRO A   2      39.097  13.500   2.950  0.00  0.00    +0.024 C 
ATOM     35  CB  PRO A   2      39.990  12.451   2.289  0.00  0.00    +0.031 C 
ATOM     36  CA  PRO A   2      41.287  13.202   1.944  0.00  0.00    +0.152 C 
ATOM     37  O   ASP A   1      43.173  15.205   2.003  0.00  0.00    -0.273 OA
BRANCH  31  38
ATOM     38  CA  ASP A   1      41.998  16.617   3.560  0.00  0.00    +0.156 C 
BRANCH  38  39
ATOM     39  N   ASP A   1      43.227  17.015   4.207  0.00  0.00    -0.238 NA
ATOM     40  H   ASP A   1      43.549  17.999   4.110  0.00  0.00    +0.142 HD
ENDBRANCH  38  39
BRANCH  38  41
ATOM     41  CB  ASP A   1      41.505  17.781   2.700  0.00  0.00    +0.140 C 
BRANCH  41  42
ATOM     42  CG  ASP A   1      40.111  17.579   2.214  0.00  0.00    +0.367 C 
ATOM     43  OD2 ASP A   1      39.161  17.946   2.945  0.00  0.00    -0.246 OA
ATOM     44  OD1 ASP A   1      39.867  17.077   1.107  0.00  0.00    -0.246 OA
ENDBRANCH  41  42
ENDBRANCH  38  41
ENDBRANCH  31  38
ENDBRANCH  27  36
ENDBRANCH  26  28
BRANCH  26  45
ATOM     45  CB  ILE A   3      39.431  15.430  -1.917  0.00  0.00    +0.027 C 
ATOM     46  CG2 ILE A   3      39.500  15.954  -3.328  0.00  0.00    +0.002 C 
BRANCH  45  47
ATOM     47  CG1 ILE A   3      38.386  14.306  -1.839  0.00  0.00    +0.002 C 
ATOM     48  CD1 ILE A   3      36.936  14.823  -1.935  0.00  0.00    +0.000 C 
ENDBRANCH  45  47
ENDBRANCH  26  45
ENDBRANCH   1  26
TORSDOF 19
REMARK  Name = ../refined-set-2016/1tok/1tok_pocket.pdb
REMARK  134 active torsions:
REMARK  status: ('A' for Active; 'I' for Inactive)
REMARK    1  A    between atoms: _1  and  _3
REMARK    2  A    between atoms: _3  and  _4
REMARK    3  A    between atoms: _3  and  _6
REMARK    4  A    between atoms: _6  and  _7
REMARK    5  A    between atoms: _11  and  _12
REMARK    6  A    between atoms: _17  and  _19
REMARK    7  A    between atoms: _19  and  _20
REMARK    8  A    between atoms: _19  and  _22
REMARK    9  A    between atoms: _22  and  _23
REMARK   10  A    between atoms: _26  and  _28
REMARK   11  A    between atoms: _28  and  _29
REMARK   12  A    between atoms: _28  and  _31
REMARK   13  A    between atoms: _31  and  _32
REMARK   14  A    between atoms: _35  and  _37
REMARK   15  A    between atoms: _37  and  _38
REMARK   16  A    between atoms: _40  and  _42
REMARK   17  A    between atoms: _42  and  _43
REMARK   18  A    between atoms: _42  and  _45
REMARK   19  A    between atoms: _45  and  _46
REMARK   20  A    between atoms: _49  and  _51
REMARK   21  A    between atoms: _51  and  _52
REMARK   22  A    between atoms: _51  and  _54
REMARK   23  A    between atoms: _54  and  _55
REMARK   24  A    between atoms: _58  and  _60
REMARK   25  A    between atoms: _60  and  _61
REMARK   26  A    between atoms: _63  and  _65
REMARK   27  A    between atoms: _65  and  _66
REMARK   28  A    between atoms: _65  and  _68
REMARK   29  A    between atoms: _68  and  _69
REMARK   30  A    between atoms: _72  and  _74
REMARK   31  A    between atoms: _74  and  _75
REMARK   32  A    between atoms: _77  and  _79
REMARK   33  A    between atoms: _79  and  _80
REMARK   34  A    between atoms: _79  and  _82
REMARK   35  A    between atoms: _85  and  _87
REMARK   36  A    between atoms: _87  and  _88
REMARK   37  A    between atoms: _90  and  _92
REMARK   38  A    between atoms: _92  and  _93
REMARK   39  A    between atoms: _92  and  _95
REMARK   40  A    between atoms: _95  and  _96
REMARK   41  A    between atoms: _98  and  _100
REMARK   42  A    between atoms: _100  and  _101
REMARK   43  A    between atoms: _100  and  _103
REMARK   44  A    between atoms: _103  and  _104
REMARK   45  A    between atoms: _115  and  _116
REMARK   46  A    between atoms: _121  and  _123
REMARK   47  A    between atoms: _123  and  _124
REMARK   48  A    between atoms: _123  and  _126
REMARK   49  A    between atoms: _126  and  _127
REMARK   50  A    between atoms: _132  and  _134
REMARK   51  A    between atoms: _134  and  _135
REMARK   52  A    between atoms: _134  and  _137
REMARK   53  A    between atoms: _137  and  _138
REMARK   54  A    between atoms: _144  and  _145
REMARK   55  A    between atoms: _150  and  _152
REMARK   56  A    between atoms: _152  and  _153
REMARK   57  A    between atoms: _156  and  _158
REMARK   58  A    between atoms: _158  and  _159
REMARK   59  A    between atoms: _158  and  _161
REMARK   60  A    between atoms: _161  and  _162
REMARK   61  A    between atoms: _167  and  _168
REMARK   62  A    between atoms: _170  and  _172
REMARK   63  A    between atoms: _172  and  _173
REMARK   64  A    between atoms: _172  and  _175
REMARK   65  A    between atoms: _175  and  _176
REMARK   66  A    between atoms: _183  and  _184
REMARK   67  A    between atoms: _184  and  _200
REMARK   68  A    between atoms: _185  and  _187
REMARK   69  A    between atoms: _187  and  _188
REMARK   70  A    between atoms: _188  and  _189
REMARK   71  A    between atoms: _193  and  _195
REMARK   72  A    between atoms: _195  and  _196
REMARK   73  A    between atoms: _195  and  _203
REMARK   74  A    between atoms: _196  and  _197
REMARK   75  A    between atoms: _197  and  _198
REMARK   76  A    between atoms: _198  and  _199
REMARK   77  A    between atoms: _199  and  _200
REMARK   78  A    between atoms: _205  and  _207
REMARK   79  A    between atoms: _207  and  _208
REMARK   80  A    between atoms: _207  and  _210
REMARK   81  A    between atoms: _210  and  _211
REMARK   82  A    between atoms: _216  and  _217
REMARK   83  A    between atoms: _219  and  _221
REMARK   84  A    between atoms: _221  and  _222
REMARK   85  A    between atoms: _221  and  _224
REMARK   86  A    between atoms: _224  and  _225
REMARK   87  A    between atoms: _225  and  _226
REMARK   88  A    between atoms: _226  and  _227
REMARK   89  A    between atoms: _236  and  _238
REMARK   90  A    between atoms: _238  and  _239
REMARK   91  A    between atoms: _238  and  _241
REMARK   92  A    between atoms: _241  and  _242
REMARK   93  A    between atoms: _242  and  _243
REMARK   94  A    between atoms: _245  and  _247
REMARK   95  A    between atoms: _247  and  _248
REMARK   96  A    between atoms: _247  and  _250
REMARK   97  A    between atoms: _250  and  _251
REMARK   98  A    between atoms: _257  and  _259
REMARK   99  A    between atoms: _259  and  _260
REMARK  100  A    between atoms: _259  and  _262
REMARK  101  A    between atoms: _265  and  _267
REMARK  102  A    between atoms: _267  and  _268
REMARK  103  A    between atoms: _267  and  _270
REMARK  104  A    between atoms: _270  and  _271
REMARK  105  A    between atoms: _271  and  _272
REMARK  106  A    between atoms: _272  and  _273
REMARK  107  A    between atoms: _282  and  _284
REMARK  108  A    between atoms: _284  and  _285
REMARK  109  A    between atoms: _284  and  _287
REMARK  110  A    between atoms: _287  and  _288
REMARK  111  A    between atoms: _293  and  _295
REMARK  112  A    between atoms: _295  and  _296
REMARK  113  A    between atoms: _295  and  _298
REMARK  114  A    between atoms: _298  and  _299
REMARK  115  A    between atoms: _304  and  _305
REMARK  116  A    between atoms: _307  and  _309
REMARK  117  A    between atoms: _309  and  _310
REMARK  118  A    between atoms: _309  and  _312
REMARK  119  A    between atoms: _312  and  _313
REMARK  120  A    between atoms: _313  and  _314
REMARK  121  A    between atoms: _314  and  _315
REMARK  122  A    between atoms: _324  and  _326
REMARK  123  A    between atoms: _326  and  _327
REMARK  124  A    between atoms: _326  and  _329
REMARK  125  A    between atoms: _329  and  _330
REMARK  126  A    between atoms: _335  and  _336
REMARK  127  A    between atoms: _338  and  _340
REMARK  128  A    between atoms: _340  and  _341
REMARK  129  A    between atoms: _340  and  _343
REMARK  130  A    between atoms: _343  and  _344
REMARK  131  A    between atoms: _346  and  _348
REMARK  132  A    between atoms: _348  and  _349
REMARK  133  A    between atoms: _348  and  _351
REMARK  134  A    between atoms: _351  and  _352
REMARK                            x       y       z     vdW  Elec       q    Type
REMARK                         _______ _______ _______ _____ _____    ______ ____
ROOT
ATOM      1  CA  ILE A   3      40.761  15.973  -7.162  0.00  0.00    +0.149 C 
ENDROOT
BRANCH   1   3
ATOM      2  C   GLY A   2      41.287  13.581  -7.349  0.00  0.00    +0.243 C 
ATOM      3  N   ILE A   3      41.680  14.831  -7.137  0.00  0.00    -0.297 N 
ATOM      4  H   ILE A   3      42.686  15.008  -6.944  0.00  0.00    +0.150 HD
ATOM      5  O   GLY A   2      40.123  13.272  -7.612  0.00  0.00    -0.273 OA
BRANCH   2   6
ATOM      6  CA  GLY A   2      42.373  12.514  -7.266  0.00  0.00    +0.176 C 
BRANCH   6   8
ATOM      7  C   LEU A   1      42.480  11.037  -9.227  0.00  0.00    +0.238 C 
ATOM      8  N   GLY A   2      42.906  12.130  -8.587  0.00  0.00    -0.296 N 
ATOM      9  H   GLY A   2      43.633  12.726  -9.032  0.00  0.00    +0.150 HD
ATOM     10  O   LEU A   1      41.520  10.373  -8.844  0.00  0.00    -0.274 OA
BRANCH   7  11
ATOM     11  CA  LEU A   1      43.257  10.639 -10.485  0.00  0.00    +0.145 C 
BRANCH  11  12
ATOM     12  N   LEU A   1      44.681  10.988 -10.356  0.00  0.00    -0.238 NA
ATOM     13  H   LEU A   1      45.257  10.515  -9.630  0.00  0.00    +0.142 HD
ENDBRANCH  11  12
BRANCH  11  14
ATOM     14  CB  LEU A   1      43.088   9.137 -10.765  0.00  0.00    +0.026 C 
BRANCH  14  15
ATOM     15  CG  LEU A   1      43.838   8.584 -11.986  0.00  0.00    +0.002 C 
ATOM     16  CD2 LEU A   1      43.603   7.067 -12.102  0.00  0.00    +0.000 C 
ATOM     17  CD1 LEU A   1      43.441   9.284 -13.294  0.00  0.00    +0.000 C 
ENDBRANCH  14  15
ENDBRANCH  11  14
ENDBRANCH   7  11
ENDBRANCH   6   8
ENDBRANCH   2   6
ENDBRANCH   1   3
BRANCH   1  18
ATOM     18  C   ILE A   3      40.031  16.053  -8.491  0.00  0.00    +0.241 C 
ATOM     19  N   GLY A   4      38.729  16.299  -8.426  0.00  0.00    -0.295 N 
ATOM     20  H   GLY A   4      38.307  16.492  -7.495  0.00  0.00    +0.150 HD
ATOM     21  O   ILE A   3      40.638  15.916  -9.547  0.00  0.00    -0.273 OA
BRANCH  19  22
ATOM     22  CA  GLY A   4      37.858  16.312  -9.604  0.00  0.00    +0.176 C 
BRANCH  22  23
ATOM     23  C   GLY A   4      38.056  17.545 -10.459  0.00  0.00    +0.243 C 
ATOM     24  O   GLY A   4      37.292  18.522 -10.370  0.00  0.00    -0.273 OA
ATOM     25  N   VAL A   5      39.085  17.501 -11.303  0.00  0.00    -0.298 N 
ATOM     26  H   VAL A   5      39.776  16.727 -11.231  0.00  0.00    +0.150 HD
BRANCH  25  27
ATOM     27  CA  VAL A   5      39.256  18.530 -12.333  0.00  0.00    +0.137 C 
BRANCH  27  28
ATOM     28  CB  VAL A   5      40.498  19.454 -12.090  0.00  0.00    +0.026 C 
ATOM     29  CG2 VAL A   5      40.381  20.189 -10.755  0.00  0.00    +0.002 C 
ATOM     30  CG1 VAL A   5      41.795  18.680 -12.142  0.00  0.00    +0.002 C 
ENDBRANCH  27  28
BRANCH  27  31
ATOM     31  C   VAL A   5      39.302  17.864 -13.709  0.00  0.00    +0.227 C 
ATOM     32  O   VAL A   5      39.856  16.754 -13.863  0.00  0.00    -0.286 OA
ENDBRANCH  27  31
ENDBRANCH  25  27
ENDBRANCH  22  23
ENDBRANCH  19  22
ENDBRANCH   1  18
BRANCH   1  33
ATOM     33  CB  ILE A   3      41.555  17.293  -6.929  0.00  0.00    +0.027 C 
ATOM     34  CG2 ILE A   3      40.616  18.505  -6.990  0.00  0.00    +0.002 C 
BRANCH  33  35
ATOM     35  CG1 ILE A   3      42.269  17.243  -5.575  0.00  0.00    +0.002 C 
ATOM     36  CD1 ILE A   3      43.318  18.345  -5.388  0.00  0.00    +0.000 C 
ENDBRANCH  33  35
ENDBRANCH   1  33
TORSDOF 15
REMARK  Name = ../refined-set-2016/1tok/1tok_pocket.pdb
REMARK  134 active torsions:
REMARK  status: ('A' for Active; 'I' for Inactive)
REMARK    1  A    between atoms: _1  and  _3
REMARK    2  A    between atoms: _3  and  _4
REMARK    3  A    between atoms: _3  and  _6
REMARK    4  A    between atoms: _6  and  _7
REMARK    5  A    between atoms: _11  and  _12
REMARK    6  A    between atoms: _17  and  _19
REMARK    7  A    between atoms: _19  and  _20
REMARK    8  A    between atoms: _19  and  _22
REMARK    9  A    between atoms: _22  and  _23
REMARK   10  A    between atoms: _26  and  _28
REMARK   11  A    between atoms: _28  and  _29
REMARK   12  A    between atoms: _28  and  _31
REMARK   13  A    between atoms: _31  and  _32
REMARK   14  A    between atoms: _35  and  _37
REMARK   15  A    between atoms: _37  and  _38
REMARK   16  A    between atoms: _40  and  _42
REMARK   17  A    between atoms: _42  and  _43
REMARK   18  A    between atoms: _42  and  _45
REMARK   19  A    between atoms: _45  and  _46
REMARK   20  A    between atoms: _49  and  _51
REMARK   21  A    between atoms: _51  and  _52
REMARK   22  A    between atoms: _51  and  _54
REMARK   23  A    between atoms: _54  and  _55
REMARK   24  A    between atoms: _58  and  _60
REMARK   25  A    between atoms: _60  and  _61
REMARK   26  A    between atoms: _63  and  _65
REMARK   27  A    between atoms: _65  and  _66
REMARK   28  A    between atoms: _65  and  _68
REMARK   29  A    between atoms: _68  and  _69
REMARK   30  A    between atoms: _72  and  _74
REMARK   31  A    between atoms: _74  and  _75
REMARK   32  A    between atoms: _77  and  _79
REMARK   33  A    between atoms: _79  and  _80
REMARK   34  A    between atoms: _79  and  _82
REMARK   35  A    between atoms: _85  and  _87
REMARK   36  A    between atoms: _87  and  _88
REMARK   37  A    between atoms: _90  and  _92
REMARK   38  A    between atoms: _92  and  _93
REMARK   39  A    between atoms: _92  and  _95
REMARK   40  A    between atoms: _95  and  _96
REMARK   41  A    between atoms: _98  and  _100
REMARK   42  A    between atoms: _100  and  _101
REMARK   43  A    between atoms: _100  and  _103
REMARK   44  A    between atoms: _103  and  _104
REMARK   45  A    between atoms: _115  and  _116
REMARK   46  A    between atoms: _121  and  _123
REMARK   47  A    between atoms: _123  and  _124
REMARK   48  A    between atoms: _123  and  _126
REMARK   49  A    between atoms: _126  and  _127
REMARK   50  A    between atoms: _132  and  _134
REMARK   51  A    between atoms: _134  and  _135
REMARK   52  A    between atoms: _134  and  _137
REMARK   53  A    between atoms: _137  and  _138
REMARK   54  A    between atoms: _144  and  _145
REMARK   55  A    between atoms: _150  and  _152
REMARK   56  A    between atoms: _152  and  _153
REMARK   57  A    between atoms: _156  and  _158
REMARK   58  A    between atoms: _158  and  _159
REMARK   59  A    between atoms: _158  and  _161
REMARK   60  A    between atoms: _161  and  _162
REMARK   61  A    between atoms: _167  and  _168
REMARK   62  A    between atoms: _170  and  _172
REMARK   63  A    between atoms: _172  and  _173
REMARK   64  A    between atoms: _172  and  _175
REMARK   65  A    between atoms: _175  and  _176
REMARK   66  A    between atoms: _183  and  _184
REMARK   67  A    between atoms: _184  and  _200
REMARK   68  A    between atoms: _185  and  _187
REMARK   69  A    between atoms: _187  and  _188
REMARK   70  A    between atoms: _188  and  _189
REMARK   71  A    between atoms: _193  and  _195
REMARK   72  A    between atoms: _195  and  _196
REMARK   73  A    between atoms: _195  and  _203
REMARK   74  A    between atoms: _196  and  _197
REMARK   75  A    between atoms: _197  and  _198
REMARK   76  A    between atoms: _198  and  _199
REMARK   77  A    between atoms: _199  and  _200
REMARK   78  A    between atoms: _205  and  _207
REMARK   79  A    between atoms: _207  and  _208
REMARK   80  A    between atoms: _207  and  _210
REMARK   81  A    between atoms: _210  and  _211
REMARK   82  A    between atoms: _216  and  _217
REMARK   83  A    between atoms: _219  and  _221
REMARK   84  A    between atoms: _221  and  _222
REMARK   85  A    between atoms: _221  and  _224
REMARK   86  A    between atoms: _224  and  _225
REMARK   87  A    between atoms: _225  and  _226
REMARK   88  A    between atoms: _226  and  _227
REMARK   89  A    between atoms: _236  and  _238
REMARK   90  A    between atoms: _238  and  _239
REMARK   91  A    between atoms: _238  and  _241
REMARK   92  A    between atoms: _241  and  _242
REMARK   93  A    between atoms: _242  and  _243
REMARK   94  A    between atoms: _245  and  _247
REMARK   95  A    between atoms: _247  and  _248
REMARK   96  A    between atoms: _247  and  _250
REMARK   97  A    between atoms: _250  and  _251
REMARK   98  A    between atoms: _257  and  _259
REMARK   99  A    between atoms: _259  and  _260
REMARK  100  A    between atoms: _259  and  _262
REMARK  101  A    between atoms: _265  and  _267
REMARK  102  A    between atoms: _267  and  _268
REMARK  103  A    between atoms: _267  and  _270
REMARK  104  A    between atoms: _270  and  _271
REMARK  105  A    between atoms: _271  and  _272
REMARK  106  A    between atoms: _272  and  _273
REMARK  107  A    between atoms: _282  and  _284
REMARK  108  A    between atoms: _284  and  _285
REMARK  109  A    between atoms: _284  and  _287
REMARK  110  A    between atoms: _287  and  _288
REMARK  111  A    between atoms: _293  and  _295
REMARK  112  A    between atoms: _295  and  _296
REMARK  113  A    between atoms: _295  and  _298
REMARK  114  A    between atoms: _298  and  _299
REMARK  115  A    between atoms: _304  and  _305
REMARK  116  A    between atoms: _307  and  _309
REMARK  117  A    between atoms: _309  and  _310
REMARK  118  A    between atoms: _309  and  _312
REMARK  119  A    between atoms: _312  and  _313
REMARK  120  A    between atoms: _313  and  _314
REMARK  121  A    between atoms: _314  and  _315
REMARK  122  A    between atoms: _324  and  _326
REMARK  123  A    between atoms: _326  and  _327
REMARK  124  A    between atoms: _326  and  _329
REMARK  125  A    between atoms: _329  and  _330
REMARK  126  A    between atoms: _335  and  _336
REMARK  127  A    between atoms: _338  and  _340
REMARK  128  A    between atoms: _340  and  _341
REMARK  129  A    between atoms: _340  and  _343
REMARK  130  A    between atoms: _343  and  _344
REMARK  131  A    between atoms: _346  and  _348
REMARK  132  A    between atoms: _348  and  _349
REMARK  133  A    between atoms: _348  and  _351
REMARK  134  A    between atoms: _351  and  _352
REMARK                            x       y       z     vdW  Elec       q    Type
REMARK                         _______ _______ _______ _____ _____    ______ ____
ROOT
ATOM      1  C   GLY A   1      30.089  25.552  -2.877  0.00  0.00    +0.240 C 
ATOM      2  O   GLY A   1      29.139  25.521  -2.089  0.00  0.00    -0.274 OA
ATOM      3  N   SER A   2      31.358  25.389  -2.505  0.00  0.00    -0.296 N 
ATOM      4  H   SER A   2      32.101  25.358  -3.232  0.00  0.00    +0.150 HD
ENDROOT
BRANCH   1   5
ATOM      5  CA  GLY A   1      29.837  25.713  -4.371  0.00  0.00    +0.169 C 
BRANCH   5   6
ATOM      6  N   GLY A   1      30.907  26.477  -4.993  0.00  0.00    -0.236 NA
ATOM      7  H   GLY A   1      31.478  26.052  -5.751  0.00  0.00    +0.142 HD
ENDBRANCH   5   6
ENDBRANCH   1   5
BRANCH   3   8
ATOM      8  CA  SER A   2      31.733  25.251  -1.080  0.00  0.00    +0.166 C 
BRANCH   8   9
ATOM      9  C   SER A   2      31.230  26.438  -0.279  0.00  0.00    +0.229 C 
ATOM     10  O   SER A   2      30.563  26.260   0.750  0.00  0.00    -0.286 OA
ENDBRANCH   8   9
BRANCH   8  11
ATOM     11  CB  SER A   2      33.245  25.194  -0.914  0.00  0.00    +0.165 C 
BRANCH  11  12
ATOM     12  OG  SER A   2      33.799  24.079  -1.588  0.00  0.00    -0.380 OA
ATOM     13  H   SER A   2      33.591  24.142  -2.554  0.00  0.00    +0.211 HD
ENDBRANCH  11  12
ENDBRANCH   8  11
ENDBRANCH   3   8
TORSDOF 6
REMARK  Name = ../refined-set-2016/1tok/1tok_pocket.pdb
REMARK  134 active torsions:
REMARK  status: ('A' for Active; 'I' for Inactive)
REMARK    1  A    between atoms: _1  and  _3
REMARK    2  A    between atoms: _3  and  _4
REMARK    3  A    between atoms: _3  and  _6
REMARK    4  A    between atoms: _6  and  _7
REMARK    5  A    between atoms: _11  and  _12
REMARK    6  A    between atoms: _17  and  _19
REMARK    7  A    between atoms: _19  and  _20
REMARK    8  A    between atoms: _19  and  _22
REMARK    9  A    between atoms: _22  and  _23
REMARK   10  A    between atoms: _26  and  _28
REMARK   11  A    between atoms: _28  and  _29
REMARK   12  A    between atoms: _28  and  _31
REMARK   13  A    between atoms: _31  and  _32
REMARK   14  A    between atoms: _35  and  _37
REMARK   15  A    between atoms: _37  and  _38
REMARK   16  A    between atoms: _40  and  _42
REMARK   17  A    between atoms: _42  and  _43
REMARK   18  A    between atoms: _42  and  _45
REMARK   19  A    between atoms: _45  and  _46
REMARK   20  A    between atoms: _49  and  _51
REMARK   21  A    between atoms: _51  and  _52
REMARK   22  A    between atoms: _51  and  _54
REMARK   23  A    between atoms: _54  and  _55
REMARK   24  A    between atoms: _58  and  _60
REMARK   25  A    between atoms: _60  and  _61
REMARK   26  A    between atoms: _63  and  _65
REMARK   27  A    between atoms: _65  and  _66
REMARK   28  A    between atoms: _65  and  _68
REMARK   29  A    between atoms: _68  and  _69
REMARK   30  A    between atoms: _72  and  _74
REMARK   31  A    between atoms: _74  and  _75
REMARK   32  A    between atoms: _77  and  _79
REMARK   33  A    between atoms: _79  and  _80
REMARK   34  A    between atoms: _79  and  _82
REMARK   35  A    between atoms: _85  and  _87
REMARK   36  A    between atoms: _87  and  _88
REMARK   37  A    between atoms: _90  and  _92
REMARK   38  A    between atoms: _92  and  _93
REMARK   39  A    between atoms: _92  and  _95
REMARK   40  A    between atoms: _95  and  _96
REMARK   41  A    between atoms: _98  and  _100
REMARK   42  A    between atoms: _100  and  _101
REMARK   43  A    between atoms: _100  and  _103
REMARK   44  A    between atoms: _103  and  _104
REMARK   45  A    between atoms: _115  and  _116
REMARK   46  A    between atoms: _121  and  _123
REMARK   47  A    between atoms: _123  and  _124
REMARK   48  A    between atoms: _123  and  _126
REMARK   49  A    between atoms: _126  and  _127
REMARK   50  A    between atoms: _132  and  _134
REMARK   51  A    between atoms: _134  and  _135
REMARK   52  A    between atoms: _134  and  _137
REMARK   53  A    between atoms: _137  and  _138
REMARK   54  A    between atoms: _144  and  _145
REMARK   55  A    between atoms: _150  and  _152
REMARK   56  A    between atoms: _152  and  _153
REMARK   57  A    between atoms: _156  and  _158
REMARK   58  A    between atoms: _158  and  _159
REMARK   59  A    between atoms: _158  and  _161
REMARK   60  A    between atoms: _161  and  _162
REMARK   61  A    between atoms: _167  and  _168
REMARK   62  A    between atoms: _170  and  _172
REMARK   63  A    between atoms: _172  and  _173
REMARK   64  A    between atoms: _172  and  _175
REMARK   65  A    between atoms: _175  and  _176
REMARK   66  A    between atoms: _183  and  _184
REMARK   67  A    between atoms: _184  and  _200
REMARK   68  A    between atoms: _185  and  _187
REMARK   69  A    between atoms: _187  and  _188
REMARK   70  A    between atoms: _188  and  _189
REMARK   71  A    between atoms: _193  and  _195
REMARK   72  A    between atoms: _195  and  _196
REMARK   73  A    between atoms: _195  and  _203
REMARK   74  A    between atoms: _196  and  _197
REMARK   75  A    between atoms: _197  and  _198
REMARK   76  A    between atoms: _198  and  _199
REMARK   77  A    between atoms: _199  and  _200
REMARK   78  A    between atoms: _205  and  _207
REMARK   79  A    between atoms: _207  and  _208
REMARK   80  A    between atoms: _207  and  _210
REMARK   81  A    between atoms: _210  and  _211
REMARK   82  A    between atoms: _216  and  _217
REMARK   83  A    between atoms: _219  and  _221
REMARK   84  A    between atoms: _221  and  _222
REMARK   85  A    between atoms: _221  and  _224
REMARK   86  A    between atoms: _224  and  _225
REMARK   87  A    between atoms: _225  and  _226
REMARK   88  A    between atoms: _226  and  _227
REMARK   89  A    between atoms: _236  and  _238
REMARK   90  A    between atoms: _238  and  _239
REMARK   91  A    between atoms: _238  and  _241
REMARK   92  A    between atoms: _241  and  _242
REMARK   93  A    between atoms: _242  and  _243
REMARK   94  A    between atoms: _245  and  _247
REMARK   95  A    between atoms: _247  and  _248
REMARK   96  A    between atoms: _247  and  _250
REMARK   97  A    between atoms: _250  and  _251
REMARK   98  A    between atoms: _257  and  _259
REMARK   99  A    between atoms: _259  and  _260
REMARK  100  A    between atoms: _259  and  _262
REMARK  101  A    between atoms: _265  and  _267
REMARK  102  A    between atoms: _267  and  _268
REMARK  103  A    between atoms: _267  and  _270
REMARK  104  A    between atoms: _270  and  _271
REMARK  105  A    between atoms: _271  and  _272
REMARK  106  A    between atoms: _272  and  _273
REMARK  107  A    between atoms: _282  and  _284
REMARK  108  A    between atoms: _284  and  _285
REMARK  109  A    between atoms: _284  and  _287
REMARK  110  A    between atoms: _287  and  _288
REMARK  111  A    between atoms: _293  and  _295
REMARK  112  A    between atoms: _295  and  _296
REMARK  113  A    between atoms: _295  and  _298
REMARK  114  A    between atoms: _298  and  _299
REMARK  115  A    between atoms: _304  and  _305
REMARK  116  A    between atoms: _307  and  _309
REMARK  117  A    between atoms: _309  and  _310
REMARK  118  A    between atoms: _309  and  _312
REMARK  119  A    between atoms: _312  and  _313
REMARK  120  A    between atoms: _313  and  _314
REMARK  121  A    between atoms: _314  and  _315
REMARK  122  A    between atoms: _324  and  _326
REMARK  123  A    between atoms: _326  and  _327
REMARK  124  A    between atoms: _326  and  _329
REMARK  125  A    between atoms: _329  and  _330
REMARK  126  A    between atoms: _335  and  _336
REMARK  127  A    between atoms: _338  and  _340
REMARK  128  A    between atoms: _340  and  _341
REMARK  129  A    between atoms: _340  and  _343
REMARK  130  A    between atoms: _343  and  _344
REMARK  131  A    between atoms: _346  and  _348
REMARK  132  A    between atoms: _348  and  _349
REMARK  133  A    between atoms: _348  and  _351
REMARK  134  A    between atoms: _351  and  _352
REMARK                            x       y       z     vdW  Elec       q    Type
REMARK                         _______ _______ _______ _____ _____    ______ ____
ROOT
ATOM      1  C   TRP A   1      31.977  14.430   0.834  0.00  0.00    +0.242 C 
ATOM      2  O   TRP A   1      31.149  14.842   1.654  0.00  0.00    -0.273 OA
ATOM      3  N   PRO A   2      33.232  14.119   1.185  0.00  0.00    -0.272 N 
ATOM      4  CA  PRO A   2      33.637  14.160   2.589  0.00  0.00    +0.152 C 
ATOM      5  CB  PRO A   2      35.089  13.646   2.573  0.00  0.00    +0.031 C 
ATOM      6  CG  PRO A   2      35.534  13.714   1.215  0.00  0.00    +0.024 C 
ATOM      7  CD  PRO A   2      34.322  13.654   0.308  0.00  0.00    +0.094 C 
ENDROOT
BRANCH   4   8
ATOM      8  C   PRO A   2      33.546  15.542   3.217  0.00  0.00    +0.241 C 
ATOM      9  O   PRO A   2      33.391  15.645   4.444  0.00  0.00    -0.273 OA
ATOM     10  N   ASN A   3      33.566  16.590   2.394  0.00  0.00    -0.298 N 
ATOM     11  H   ASN A   3      33.627  16.447   1.366  0.00  0.00    +0.150 HD
BRANCH  10  12
ATOM     12  CA  ASN A   3      33.501  17.942   2.947  0.00  0.00    +0.146 C 
BRANCH  12  13
ATOM     13  C   ASN A   3      32.105  18.365   3.417  0.00  0.00    +0.227 C 
ATOM     14  O   ASN A   3      31.980  19.358   4.132  0.00  0.00    -0.286 OA
ENDBRANCH  12  13
BRANCH  12  15
ATOM     15  CB  ASN A   3      34.058  18.987   1.984  0.00  0.00    +0.112 C 
BRANCH  15  16
ATOM     16  CG  ASN A   3      34.553  20.227   2.716  0.00  0.00    +0.222 C 
ATOM     17  OD1 ASN A   3      35.055  20.125   3.834  0.00  0.00    -0.275 OA
ATOM     18  ND2 ASN A   3      34.412  21.393   2.096  0.00  0.00    -0.329 N 
ATOM     19 HD21 ASN A   3      34.732  22.269   2.556  0.00  0.00    +0.145 HD
ATOM     20 HD22 ASN A   3      33.981  21.430   1.150  0.00  0.00    +0.145 HD
ENDBRANCH  15  16
ENDBRANCH  12  15
ENDBRANCH  10  12
ENDBRANCH   4   8
BRANCH   1  21
ATOM     21  CA  TRP A   1      31.557  14.226  -0.624  0.00  0.00    +0.149 C 
BRANCH  21  22
ATOM     22  N   TRP A   1      30.334  13.427  -0.666  0.00  0.00    -0.238 NA
ATOM     23  H   TRP A   1      29.515  13.795  -1.190  0.00  0.00    +0.142 HD
ENDBRANCH  21  22
BRANCH  21  24
ATOM     24  CB  TRP A   1      31.200  15.554  -1.240  0.00  0.00    +0.054 C 
BRANCH  24  25
ATOM     25  CG  TRP A   1      32.309  16.517  -1.489  0.00  0.00    -0.002 A 
ATOM     26  CD2 TRP A   1      32.268  17.909  -1.193  0.00  0.00    +0.013 A 
ATOM     27  CE3 TRP A   1      31.332  18.741  -0.548  0.00  0.00    +0.001 A 
ATOM     28  CZ3 TRP A   1      31.615  20.098  -0.417  0.00  0.00    +0.000 A 
ATOM     29  CH2 TRP A   1      32.825  20.635  -0.910  0.00  0.00    +0.001 A 
ATOM     30  CZ2 TRP A   1      33.764  19.840  -1.537  0.00  0.00    +0.017 A 
ATOM     31  CE2 TRP A   1      33.469  18.479  -1.675  0.00  0.00    +0.056 A 
ATOM     32  NE1 TRP A   1      34.189  17.471  -2.270  0.00  0.00    -0.352 N 
ATOM     33  HE1 TRP A   1      35.117  17.577  -2.727  0.00  0.00    +0.166 HD
ATOM     34  CD1 TRP A   1      33.477  16.295  -2.161  0.00  0.00    +0.068 A 
ENDBRANCH  24  25
ENDBRANCH  21  24
ENDBRANCH   1  21
TORSDOF 9
REMARK  Name = ../refined-set-2016/1tok/1tok_pocket.pdb
REMARK  134 active torsions:
REMARK  status: ('A' for Active; 'I' for Inactive)
REMARK    1  A    between atoms: _1  and  _3
REMARK    2  A    between atoms: _3  and  _4
REMARK    3  A    between atoms: _3  and  _6
REMARK    4  A    between atoms: _6  and  _7
REMARK    5  A    between atoms: _11  and  _12
REMARK    6  A    between atoms: _17  and  _19
REMARK    7  A    between atoms: _19  and  _20
REMARK    8  A    between atoms: _19  and  _22
REMARK    9  A    between atoms: _22  and  _23
REMARK   10  A    between atoms: _26  and  _28
REMARK   11  A    between atoms: _28  and  _29
REMARK   12  A    between atoms: _28  and  _31
REMARK   13  A    between atoms: _31  and  _32
REMARK   14  A    between atoms: _35  and  _37
REMARK   15  A    between atoms: _37  and  _38
REMARK   16  A    between atoms: _40  and  _42
REMARK   17  A    between atoms: _42  and  _43
REMARK   18  A    between atoms: _42  and  _45
REMARK   19  A    between atoms: _45  and  _46
REMARK   20  A    between atoms: _49  and  _51
REMARK   21  A    between atoms: _51  and  _52
REMARK   22  A    between atoms: _51  and  _54
REMARK   23  A    between atoms: _54  and  _55
REMARK   24  A    between atoms: _58  and  _60
REMARK   25  A    between atoms: _60  and  _61
REMARK   26  A    between atoms: _63  and  _65
REMARK   27  A    between atoms: _65  and  _66
REMARK   28  A    between atoms: _65  and  _68
REMARK   29  A    between atoms: _68  and  _69
REMARK   30  A    between atoms: _72  and  _74
REMARK   31  A    between atoms: _74  and  _75
REMARK   32  A    between atoms: _77  and  _79
REMARK   33  A    between atoms: _79  and  _80
REMARK   34  A    between atoms: _79  and  _82
REMARK   35  A    between atoms: _85  and  _87
REMARK   36  A    between atoms: _87  and  _88
REMARK   37  A    between atoms: _90  and  _92
REMARK   38  A    between atoms: _92  and  _93
REMARK   39  A    between atoms: _92  and  _95
REMARK   40  A    between atoms: _95  and  _96
REMARK   41  A    between atoms: _98  and  _100
REMARK   42  A    between atoms: _100  and  _101
REMARK   43  A    between atoms: _100  and  _103
REMARK   44  A    between atoms: _103  and  _104
REMARK   45  A    between atoms: _115  and  _116
REMARK   46  A    between atoms: _121  and  _123
REMARK   47  A    between atoms: _123  and  _124
REMARK   48  A    between atoms: _123  and  _126
REMARK   49  A    between atoms: _126  and  _127
REMARK   50  A    between atoms: _132  and  _134
REMARK   51  A    between atoms: _134  and  _135
REMARK   52  A    between atoms: _134  and  _137
REMARK   53  A    between atoms: _137  and  _138
REMARK   54  A    between atoms: _144  and  _145
REMARK   55  A    between atoms: _150  and  _152
REMARK   56  A    between atoms: _152  and  _153
REMARK   57  A    between atoms: _156  and  _158
REMARK   58  A    between atoms: _158  and  _159
REMARK   59  A    between atoms: _158  and  _161
REMARK   60  A    between atoms: _161  and  _162
REMARK   61  A    between atoms: _167  and  _168
REMARK   62  A    between atoms: _170  and  _172
REMARK   63  A    between atoms: _172  and  _173
REMARK   64  A    between atoms: _172  and  _175
REMARK   65  A    between atoms: _175  and  _176
REMARK   66  A    between atoms: _183  and  _184
REMARK   67  A    between atoms: _184  and  _200
REMARK   68  A    between atoms: _185  and  _187
REMARK   69  A    between atoms: _187  and  _188
REMARK   70  A    between atoms: _188  and  _189
REMARK   71  A    between atoms: _193  and  _195
REMARK   72  A    between atoms: _195  and  _196
REMARK   73  A    between atoms: _195  and  _203
REMARK   74  A    between atoms: _196  and  _197
REMARK   75  A    between atoms: _197  and  _198
REMARK   76  A    between atoms: _198  and  _199
REMARK   77  A    between atoms: _199  and  _200
REMARK   78  A    between atoms: _205  and  _207
REMARK   79  A    between atoms: _207  and  _208
REMARK   80  A    between atoms: _207  and  _210
REMARK   81  A    between atoms: _210  and  _211
REMARK   82  A    between atoms: _216  and  _217
REMARK   83  A    between atoms: _219  and  _221
REMARK   84  A    between atoms: _221  and  _222
REMARK   85  A    between atoms: _221  and  _224
REMARK   86  A    between atoms: _224  and  _225
REMARK   87  A    between atoms: _225  and  _226
REMARK   88  A    between atoms: _226  and  _227
REMARK   89  A    between atoms: _236  and  _238
REMARK   90  A    between atoms: _238  and  _239
REMARK   91  A    between atoms: _238  and  _241
REMARK   92  A    between atoms: _241  and  _242
REMARK   93  A    between atoms: _242  and  _243
REMARK   94  A    between atoms: _245  and  _247
REMARK   95  A    between atoms: _247  and  _248
REMARK   96  A    between atoms: _247  and  _250
REMARK   97  A    between atoms: _250  and  _251
REMARK   98  A    between atoms: _257  and  _259
REMARK   99  A    between atoms: _259  and  _260
REMARK  100  A    between atoms: _259  and  _262
REMARK  101  A    between atoms: _265  and  _267
REMARK  102  A    between atoms: _267  and  _268
REMARK  103  A    between atoms: _267  and  _270
REMARK  104  A    between atoms: _270  and  _271
REMARK  105  A    between atoms: _271  and  _272
REMARK  106  A    between atoms: _272  and  _273
REMARK  107  A    between atoms: _282  and  _284
REMARK  108  A    between atoms: _284  and  _285
REMARK  109  A    between atoms: _284  and  _287
REMARK  110  A    between atoms: _287  and  _288
REMARK  111  A    between atoms: _293  and  _295
REMARK  112  A    between atoms: _295  and  _296
REMARK  113  A    between atoms: _295  and  _298
REMARK  114  A    between atoms: _298  and  _299
REMARK  115  A    between atoms: _304  and  _305
REMARK  116  A    between atoms: _307  and  _309
REMARK  117  A    between atoms: _309  and  _310
REMARK  118  A    between atoms: _309  and  _312
REMARK  119  A    between atoms: _312  and  _313
REMARK  120  A    between atoms: _313  and  _314
REMARK  121  A    between atoms: _314  and  _315
REMARK  122  A    between atoms: _324  and  _326
REMARK  123  A    between atoms: _326  and  _327
REMARK  124  A    between atoms: _326  and  _329
REMARK  125  A    between atoms: _329  and  _330
REMARK  126  A    between atoms: _335  and  _336
REMARK  127  A    between atoms: _338  and  _340
REMARK  128  A    between atoms: _340  and  _341
REMARK  129  A    between atoms: _340  and  _343
REMARK  130  A    between atoms: _343  and  _344
REMARK  131  A    between atoms: _346  and  _348
REMARK  132  A    between atoms: _348  and  _349
REMARK  133  A    between atoms: _348  and  _351
REMARK  134  A    between atoms: _351  and  _352
REMARK                            x       y       z     vdW  Elec       q    Type
REMARK                         _______ _______ _______ _____ _____    ______ ____
ROOT
ATOM      1  CA  ASN A   1      29.656  12.341  -5.674  0.00  0.00    +0.154 C 
ENDROOT
BRANCH   1   2
ATOM      2  C   ASN A   1      29.749  11.631  -4.303  0.00  0.00    +0.242 C 
ATOM      3  O   ASN A   1      29.335  12.214  -3.283  0.00  0.00    -0.273 OA
ATOM      4  N   PRO A   2      30.313  10.419  -4.226  0.00  0.00    -0.273 N 
ATOM      5  CD  PRO A   2      30.283   9.619  -2.984  0.00  0.00    +0.094 C 
ATOM      6  CG  PRO A   2      31.390   8.598  -3.194  0.00  0.00    +0.024 C 
ATOM      7  CB  PRO A   2      32.218   9.094  -4.396  0.00  0.00    +0.030 C 
ATOM      8  CA  PRO A   2      31.182   9.795  -5.257  0.00  0.00    +0.140 C 
BRANCH   8   9
ATOM      9  C   PRO A   2      30.621   8.725  -6.208  0.00  0.00    +0.227 C 
ATOM     10  O   PRO A   2      31.378   8.215  -7.043  0.00  0.00    -0.286 OA
ENDBRANCH   8   9
ENDBRANCH   1   2
BRANCH   1  11
ATOM     11  N   ASN A   1      28.251  12.527  -6.047  0.00  0.00    -0.238 NA
ATOM     12  H   ASN A   1      27.674  13.218  -5.525  0.00  0.00    +0.142 HD
ENDBRANCH   1  11
BRANCH   1  13
ATOM     13  CB  ASN A   1      30.324  13.726  -5.630  0.00  0.00    +0.111 C 
BRANCH  13  14
ATOM     14  CG  ASN A   1      31.807  13.664  -5.315  0.00  0.00    +0.221 C 
ATOM     15  OD1 ASN A   1      32.377  12.595  -5.067  0.00  0.00    -0.275 OA
ATOM     16  ND2 ASN A   1      32.431  14.830  -5.272  0.00  0.00    -0.329 N 
ATOM     17 HD21 ASN A   1      33.440  14.871  -5.022  0.00  0.00    +0.145 HD
ATOM     18 HD22 ASN A   1      31.913  15.705  -5.488  0.00  0.00    +0.145 HD
ENDBRANCH  13  14
ENDBRANCH   1  13
TORSDOF 5
REMARK  Name = ../refined-set-2016/1tok/1tok_pocket.pdb
REMARK  134 active torsions:
REMARK  status: ('A' for Active; 'I' for Inactive)
REMARK    1  A    between atoms: _1  and  _3
REMARK    2  A    between atoms: _3  and  _4
REMARK    3  A    between atoms: _3  and  _6
REMARK    4  A    between atoms: _6  and  _7
REMARK    5  A    between atoms: _11  and  _12
REMARK    6  A    between atoms: _17  and  _19
REMARK    7  A    between atoms: _19  and  _20
REMARK    8  A    between atoms: _19  and  _22
REMARK    9  A    between atoms: _22  and  _23
REMARK   10  A    between atoms: _26  and  _28
REMARK   11  A    between atoms: _28  and  _29
REMARK   12  A    between atoms: _28  and  _31
REMARK   13  A    between atoms: _31  and  _32
REMARK   14  A    between atoms: _35  and  _37
REMARK   15  A    between atoms: _37  and  _38
REMARK   16  A    between atoms: _40  and  _42
REMARK   17  A    between atoms: _42  and  _43
REMARK   18  A    between atoms: _42  and  _45
REMARK   19  A    between atoms: _45  and  _46
REMARK   20  A    between atoms: _49  and  _51
REMARK   21  A    between atoms: _51  and  _52
REMARK   22  A    between atoms: _51  and  _54
REMARK   23  A    between atoms: _54  and  _55
REMARK   24  A    between atoms: _58  and  _60
REMARK   25  A    between atoms: _60  and  _61
REMARK   26  A    between atoms: _63  and  _65
REMARK   27  A    between atoms: _65  and  _66
REMARK   28  A    between atoms: _65  and  _68
REMARK   29  A    between atoms: _68  and  _69
REMARK   30  A    between atoms: _72  and  _74
REMARK   31  A    between atoms: _74  and  _75
REMARK   32  A    between atoms: _77  and  _79
REMARK   33  A    between atoms: _79  and  _80
REMARK   34  A    between atoms: _79  and  _82
REMARK   35  A    between atoms: _85  and  _87
REMARK   36  A    between atoms: _87  and  _88
REMARK   37  A    between atoms: _90  and  _92
REMARK   38  A    between atoms: _92  and  _93
REMARK   39  A    between atoms: _92  and  _95
REMARK   40  A    between atoms: _95  and  _96
REMARK   41  A    between atoms: _98  and  _100
REMARK   42  A    between atoms: _100  and  _101
REMARK   43  A    between atoms: _100  and  _103
REMARK   44  A    between atoms: _103  and  _104
REMARK   45  A    between atoms: _115  and  _116
REMARK   46  A    between atoms: _121  and  _123
REMARK   47  A    between atoms: _123  and  _124
REMARK   48  A    between atoms: _123  and  _126
REMARK   49  A    between atoms: _126  and  _127
REMARK   50  A    between atoms: _132  and  _134
REMARK   51  A    between atoms: _134  and  _135
REMARK   52  A    between atoms: _134  and  _137
REMARK   53  A    between atoms: _137  and  _138
REMARK   54  A    between atoms: _144  and  _145
REMARK   55  A    between atoms: _150  and  _152
REMARK   56  A    between atoms: _152  and  _153
REMARK   57  A    between atoms: _156  and  _158
REMARK   58  A    between atoms: _158  and  _159
REMARK   59  A    between atoms: _158  and  _161
REMARK   60  A    between atoms: _161  and  _162
REMARK   61  A    between atoms: _167  and  _168
REMARK   62  A    between atoms: _170  and  _172
REMARK   63  A    between atoms: _172  and  _173
REMARK   64  A    between atoms: _172  and  _175
REMARK   65  A    between atoms: _175  and  _176
REMARK   66  A    between atoms: _183  and  _184
REMARK   67  A    between atoms: _184  and  _200
REMARK   68  A    between atoms: _185  and  _187
REMARK   69  A    between atoms: _187  and  _188
REMARK   70  A    between atoms: _188  and  _189
REMARK   71  A    between atoms: _193  and  _195
REMARK   72  A    between atoms: _195  and  _196
REMARK   73  A    between atoms: _195  and  _203
REMARK   74  A    between atoms: _196  and  _197
REMARK   75  A    between atoms: _197  and  _198
REMARK   76  A    between atoms: _198  and  _199
REMARK   77  A    between atoms: _199  and  _200
REMARK   78  A    between atoms: _205  and  _207
REMARK   79  A    between atoms: _207  and  _208
REMARK   80  A    between atoms: _207  and  _210
REMARK   81  A    between atoms: _210  and  _211
REMARK   82  A    between atoms: _216  and  _217
REMARK   83  A    between atoms: _219  and  _221
REMARK   84  A    between atoms: _221  and  _222
REMARK   85  A    between atoms: _221  and  _224
REMARK   86  A    between atoms: _224  and  _225
REMARK   87  A    between atoms: _225  and  _226
REMARK   88  A    between atoms: _226  and  _227
REMARK   89  A    between atoms: _236  and  _238
REMARK   90  A    between atoms: _238  and  _239
REMARK   91  A    between atoms: _238  and  _241
REMARK   92  A    between atoms: _241  and  _242
REMARK   93  A    between atoms: _242  and  _243
REMARK   94  A    between atoms: _245  and  _247
REMARK   95  A    between atoms: _247  and  _248
REMARK   96  A    between atoms: _247  and  _250
REMARK   97  A    between atoms: _250  and  _251
REMARK   98  A    between atoms: _257  and  _259
REMARK   99  A    between atoms: _259  and  _260
REMARK  100  A    between atoms: _259  and  _262
REMARK  101  A    between atoms: _265  and  _267
REMARK  102  A    between atoms: _267  and  _268
REMARK  103  A    between atoms: _267  and  _270
REMARK  104  A    between atoms: _270  and  _271
REMARK  105  A    between atoms: _271  and  _272
REMARK  106  A    between atoms: _272  and  _273
REMARK  107  A    between atoms: _282  and  _284
REMARK  108  A    between atoms: _284  and  _285
REMARK  109  A    between atoms: _284  and  _287
REMARK  110  A    between atoms: _287  and  _288
REMARK  111  A    between atoms: _293  and  _295
REMARK  112  A    between atoms: _295  and  _296
REMARK  113  A    between atoms: _295  and  _298
REMARK  114  A    between atoms: _298  and  _299
REMARK  115  A    between atoms: _304  and  _305
REMARK  116  A    between atoms: _307  and  _309
REMARK  117  A    between atoms: _309  and  _310
REMARK  118  A    between atoms: _309  and  _312
REMARK  119  A    between atoms: _312  and  _313
REMARK  120  A    between atoms: _313  and  _314
REMARK  121  A    between atoms: _314  and  _315
REMARK  122  A    between atoms: _324  and  _326
REMARK  123  A    between atoms: _326  and  _327
REMARK  124  A    between atoms: _326  and  _329
REMARK  125  A    between atoms: _329  and  _330
REMARK  126  A    between atoms: _335  and  _336
REMARK  127  A    between atoms: _338  and  _340
REMARK  128  A    between atoms: _340  and  _341
REMARK  129  A    between atoms: _340  and  _343
REMARK  130  A    between atoms: _343  and  _344
REMARK  131  A    between atoms: _346  and  _348
REMARK  132  A    between atoms: _348  and  _349
REMARK  133  A    between atoms: _348  and  _351
REMARK  134  A    between atoms: _351  and  _352
REMARK                            x       y       z     vdW  Elec       q    Type
REMARK                         _______ _______ _______ _____ _____    ______ ____
ROOT
ATOM      1  CA  TYR A   2      27.992  19.264 -12.008  0.00  0.00    +0.141 C 
ENDROOT
BRANCH   1   4
ATOM      2  C   ALA A   1      28.454  20.782 -10.110  0.00  0.00    +0.238 C 
ATOM      3  O   ALA A   1      29.493  21.209 -10.629  0.00  0.00    -0.274 OA
ATOM      4  N   TYR A   2      27.639  19.909 -10.715  0.00  0.00    -0.298 N 
ATOM      5  H   TYR A   2      26.730  19.674 -10.267  0.00  0.00    +0.150 HD
BRANCH   2   6
ATOM      6  CA  ALA A   1      28.097  21.190  -8.681  0.00  0.00    +0.145 C 
ATOM      7  CB  ALA A   1      29.164  20.640  -7.676  0.00  0.00    +0.028 C 
BRANCH   6   8
ATOM      8  N   ALA A   1      26.747  20.802  -8.253  0.00  0.00    -0.238 NA
ATOM      9  H   ALA A   1      26.585  19.844  -7.882  0.00  0.00    +0.142 HD
ENDBRANCH   6   8
ENDBRANCH   2   6
ENDBRANCH   1   4
BRANCH   1  10
ATOM     10  C   TYR A   2      26.912  19.430 -13.067  0.00  0.00    +0.227 C 
ATOM     11  O   TYR A   2      26.774  18.587 -13.945  0.00  0.00    -0.286 OA
ENDBRANCH   1  10
BRANCH   1  12
ATOM     12  CB  TYR A   2      28.281  17.763 -11.801  0.00  0.00    +0.054 C 
BRANCH  12  13
ATOM     13  CG  TYR A   2      29.452  17.530 -10.856  0.00  0.00    -0.020 A 
ATOM     14  CD2 TYR A   2      29.237  17.207  -9.514  0.00  0.00    -0.001 A 
ATOM     15  CE2 TYR A   2      30.301  17.019  -8.641  0.00  0.00    +0.036 A 
ATOM     16  CZ  TYR A   2      31.591  17.176  -9.093  0.00  0.00    +0.134 A 
ATOM     17  CE1 TYR A   2      31.841  17.513 -10.411  0.00  0.00    +0.036 A 
ATOM     18  CD1 TYR A   2      30.766  17.706 -11.287  0.00  0.00    -0.001 A 
BRANCH  16  19
ATOM     19  OH  TYR A   2      32.640  17.003  -8.220  0.00  0.00    -0.506 OA
ATOM     20  HH  TYR A   2      32.560  17.653  -7.477  0.00  0.00    +0.292 HD
ENDBRANCH  16  19
ENDBRANCH  12  13
ENDBRANCH   1  12
TORSDOF 7
REMARK  Name = ../refined-set-2016/1tok/1tok_pocket.pdb
REMARK  134 active torsions:
REMARK  status: ('A' for Active; 'I' for Inactive)
REMARK    1  A    between atoms: _1  and  _3
REMARK    2  A    between atoms: _3  and  _4
REMARK    3  A    between atoms: _3  and  _6
REMARK    4  A    between atoms: _6  and  _7
REMARK    5  A    between atoms: _11  and  _12
REMARK    6  A    between atoms: _17  and  _19
REMARK    7  A    between atoms: _19  and  _20
REMARK    8  A    between atoms: _19  and  _22
REMARK    9  A    between atoms: _22  and  _23
REMARK   10  A    between atoms: _26  and  _28
REMARK   11  A    between atoms: _28  and  _29
REMARK   12  A    between atoms: _28  and  _31
REMARK   13  A    between atoms: _31  and  _32
REMARK   14  A    between atoms: _35  and  _37
REMARK   15  A    between atoms: _37  and  _38
REMARK   16  A    between atoms: _40  and  _42
REMARK   17  A    between atoms: _42  and  _43
REMARK   18  A    between atoms: _42  and  _45
REMARK   19  A    between atoms: _45  and  _46
REMARK   20  A    between atoms: _49  and  _51
REMARK   21  A    between atoms: _51  and  _52
REMARK   22  A    between atoms: _51  and  _54
REMARK   23  A    between atoms: _54  and  _55
REMARK   24  A    between atoms: _58  and  _60
REMARK   25  A    between atoms: _60  and  _61
REMARK   26  A    between atoms: _63  and  _65
REMARK   27  A    between atoms: _65  and  _66
REMARK   28  A    between atoms: _65  and  _68
REMARK   29  A    between atoms: _68  and  _69
REMARK   30  A    between atoms: _72  and  _74
REMARK   31  A    between atoms: _74  and  _75
REMARK   32  A    between atoms: _77  and  _79
REMARK   33  A    between atoms: _79  and  _80
REMARK   34  A    between atoms: _79  and  _82
REMARK   35  A    between atoms: _85  and  _87
REMARK   36  A    between atoms: _87  and  _88
REMARK   37  A    between atoms: _90  and  _92
REMARK   38  A    between atoms: _92  and  _93
REMARK   39  A    between atoms: _92  and  _95
REMARK   40  A    between atoms: _95  and  _96
REMARK   41  A    between atoms: _98  and  _100
REMARK   42  A    between atoms: _100  and  _101
REMARK   43  A    between atoms: _100  and  _103
REMARK   44  A    between atoms: _103  and  _104
REMARK   45  A    between atoms: _115  and  _116
REMARK   46  A    between atoms: _121  and  _123
REMARK   47  A    between atoms: _123  and  _124
REMARK   48  A    between atoms: _123  and  _126
REMARK   49  A    between atoms: _126  and  _127
REMARK   50  A    between atoms: _132  and  _134
REMARK   51  A    between atoms: _134  and  _135
REMARK   52  A    between atoms: _134  and  _137
REMARK   53  A    between atoms: _137  and  _138
REMARK   54  A    between atoms: _144  and  _145
REMARK   55  A    between atoms: _150  and  _152
REMARK   56  A    between atoms: _152  and  _153
REMARK   57  A    between atoms: _156  and  _158
REMARK   58  A    between atoms: _158  and  _159
REMARK   59  A    between atoms: _158  and  _161
REMARK   60  A    between atoms: _161  and  _162
REMARK   61  A    between atoms: _167  and  _168
REMARK   62  A    between atoms: _170  and  _172
REMARK   63  A    between atoms: _172  and  _173
REMARK   64  A    between atoms: _172  and  _175
REMARK   65  A    between atoms: _175  and  _176
REMARK   66  A    between atoms: _183  and  _184
REMARK   67  A    between atoms: _184  and  _200
REMARK   68  A    between atoms: _185  and  _187
REMARK   69  A    between atoms: _187  and  _188
REMARK   70  A    between atoms: _188  and  _189
REMARK   71  A    between atoms: _193  and  _195
REMARK   72  A    between atoms: _195  and  _196
REMARK   73  A    between atoms: _195  and  _203
REMARK   74  A    between atoms: _196  and  _197
REMARK   75  A    between atoms: _197  and  _198
REMARK   76  A    between atoms: _198  and  _199
REMARK   77  A    between atoms: _199  and  _200
REMARK   78  A    between atoms: _205  and  _207
REMARK   79  A    between atoms: _207  and  _208
REMARK   80  A    between atoms: _207  and  _210
REMARK   81  A    between atoms: _210  and  _211
REMARK   82  A    between atoms: _216  and  _217
REMARK   83  A    between atoms: _219  and  _221
REMARK   84  A    between atoms: _221  and  _222
REMARK   85  A    between atoms: _221  and  _224
REMARK   86  A    between atoms: _224  and  _225
REMARK   87  A    between atoms: _225  and  _226
REMARK   88  A    between atoms: _226  and  _227
REMARK   89  A    between atoms: _236  and  _238
REMARK   90  A    between atoms: _238  and  _239
REMARK   91  A    between atoms: _238  and  _241
REMARK   92  A    between atoms: _241  and  _242
REMARK   93  A    between atoms: _242  and  _243
REMARK   94  A    between atoms: _245  and  _247
REMARK   95  A    between atoms: _247  and  _248
REMARK   96  A    between atoms: _247  and  _250
REMARK   97  A    between atoms: _250  and  _251
REMARK   98  A    between atoms: _257  and  _259
REMARK   99  A    between atoms: _259  and  _260
REMARK  100  A    between atoms: _259  and  _262
REMARK  101  A    between atoms: _265  and  _267
REMARK  102  A    between atoms: _267  and  _268
REMARK  103  A    between atoms: _267  and  _270
REMARK  104  A    between atoms: _270  and  _271
REMARK  105  A    between atoms: _271  and  _272
REMARK  106  A    between atoms: _272  and  _273
REMARK  107  A    between atoms: _282  and  _284
REMARK  108  A    between atoms: _284  and  _285
REMARK  109  A    between atoms: _284  and  _287
REMARK  110  A    between atoms: _287  and  _288
REMARK  111  A    between atoms: _293  and  _295
REMARK  112  A    between atoms: _295  and  _296
REMARK  113  A    between atoms: _295  and  _298
REMARK  114  A    between atoms: _298  and  _299
REMARK  115  A    between atoms: _304  and  _305
REMARK  116  A    between atoms: _307  and  _309
REMARK  117  A    between atoms: _309  and  _310
REMARK  118  A    between atoms: _309  and  _312
REMARK  119  A    between atoms: _312  and  _313
REMARK  120  A    between atoms: _313  and  _314
REMARK  121  A    between atoms: _314  and  _315
REMARK  122  A    between atoms: _324  and  _326
REMARK  123  A    between atoms: _326  and  _327
REMARK  124  A    between atoms: _326  and  _329
REMARK  125  A    between atoms: _329  and  _330
REMARK  126  A    between atoms: _335  and  _336
REMARK  127  A    between atoms: _338  and  _340
REMARK  128  A    between atoms: _340  and  _341
REMARK  129  A    between atoms: _340  and  _343
REMARK  130  A    between atoms: _343  and  _344
REMARK  131  A    between atoms: _346  and  _348
REMARK  132  A    between atoms: _348  and  _349
REMARK  133  A    between atoms: _348  and  _351
REMARK  134  A    between atoms: _351  and  _352
REMARK                            x       y       z     vdW  Elec       q    Type
REMARK                         _______ _______ _______ _____ _____    ______ ____
ROOT
ATOM      1  N   UNK A   2      33.177  19.780  -7.467  0.00  0.00    +0.384 N 
ATOM      2  H   UNK A   2      32.308  20.351  -7.484  0.00  0.00    -0.084 HD
ATOM      3  H   UNK A   2      32.945  18.792  -7.694  0.00  0.00    -0.084 HD
ENDROOT
BRANCH   1   4
ATOM      4  C   UNK A   2      33.616  19.783  -6.163  0.00  0.00    -0.070 C 
BRANCH   4   5
ATOM      5  C   UNK A   2      32.364  19.765  -5.285  0.00  0.00    +0.064 C 
ATOM      6  C   UNK A   2      31.995  20.883  -4.514  0.00  0.00    +0.010 C 
ATOM      7  C   UNK A   2      30.830  20.876  -3.770  0.00  0.00    +0.093 C 
ATOM      8  N   UNK A   2      30.036  19.738  -3.803  0.00  0.00    -0.246 NA
ATOM      9  C   UNK A   2      30.381  18.614  -4.506  0.00  0.00    +0.094 C 
ATOM     10  C   UNK A   2      29.448  17.431  -4.464  0.00  0.00    +0.055 C 
ATOM     11  C   UNK A   2      31.555  18.619  -5.265  0.00  0.00    +0.188 C 
ATOM     12  O   UNK A   2      31.874  17.612  -5.922  0.00  0.00    -0.290 OA
BRANCH   6  13
ATOM     13  C   UNK A   2      32.835  22.113  -4.447  0.00  0.00    +0.178 C 
BRANCH  13  14
ATOM     14  O   UNK A   2      32.814  22.993  -5.569  0.00  0.00    -0.266 OA
BRANCH  14  15
ATOM     15  P   UNK A   2      33.613  24.377  -5.530  0.00  0.00    +0.533 P 
ATOM     16  O   UNK A   2      34.969  23.999  -5.982  0.00  0.00    -0.115 OA
ATOM     17  O   UNK A   2      33.585  24.886  -4.115  0.00  0.00    -0.115 OA
ATOM     18  O   UNK A   2      32.842  25.261  -6.468  0.00  0.00    -0.222 OA
ENDBRANCH  14  15
ENDBRANCH  13  14
ENDBRANCH   6  13
ENDBRANCH   4   5
ENDBRANCH   1   4
BRANCH   1  19
ATOM     19  C   UNK A   2      34.065  20.301  -8.637  0.00  0.00    -0.082 C 
BRANCH  19  20
ATOM     20  C   UNK A   2      33.235  20.853  -9.867  0.00  0.00    -0.023 C 
BRANCH  20  21
ATOM     21  C   UNK A   2      33.883  20.547 -11.251  0.00  0.00    -0.000 C 
BRANCH  21  22
ATOM     22  C   UNK A   2      33.041  20.985 -12.531  0.00  0.00    +0.028 C 
BRANCH  22  23
ATOM     23  C   UNK A   2      33.532  22.322 -13.128  0.00  0.00    +0.137 C 
BRANCH  23  25
ATOM     24  C   SER A   1      34.153  24.421 -12.102  0.00  0.00    +0.241 C 
ATOM     25  N   UNK A   2      33.280  23.416 -12.206  0.00  0.00    -0.298 N 
ATOM     26  H   UNK A   2      32.417  23.416 -11.625  0.00  0.00    +0.150 HD
ATOM     27  O   SER A   1      35.128  24.561 -12.859  0.00  0.00    -0.274 OA
BRANCH  24  28
ATOM     28  CA  SER A   1      33.895  25.425 -10.987  0.00  0.00    +0.174 C 
BRANCH  28  29
ATOM     29  N   SER A   1      32.492  25.848 -10.973  0.00  0.00    -0.236 NA
ATOM     30  H   SER A   1      31.924  25.700 -10.114  0.00  0.00    +0.142 HD
ENDBRANCH  28  29
BRANCH  28  31
ATOM     31  CB  SER A   1      34.252  24.798  -9.652  0.00  0.00    +0.163 C 
BRANCH  31  32
ATOM     32  OG  SER A   1      34.429  25.820  -8.694  0.00  0.00    -0.380 OA
ATOM     33  H   SER A   1      35.159  26.421  -8.986  0.00  0.00    +0.211 HD
ENDBRANCH  31  32
ENDBRANCH  28  31
ENDBRANCH  24  28
ENDBRANCH  23  25
BRANCH  23  34
ATOM     34  C   UNK A   2      32.997  22.617 -14.538  0.00  0.00    +0.227 C 
ATOM     35  O   UNK A   2      33.722  22.420 -15.528  0.00  0.00    -0.286 OA
ENDBRANCH  23  34
ENDBRANCH  22  23
ENDBRANCH  21  22
ENDBRANCH  20  21
ENDBRANCH  19  20
ENDBRANCH   1  19
TORSDOF 16
REMARK  Name = ../refined-set-2016/1tok/1tok_pocket.pdb
REMARK  134 active torsions:
REMARK  status: ('A' for Active; 'I' for Inactive)
REMARK    1  A    between atoms: _1  and  _3
REMARK    2  A    between atoms: _3  and  _4
REMARK    3  A    between atoms: _3  and  _6
REMARK    4  A    between atoms: _6  and  _7
REMARK    5  A    between atoms: _11  and  _12
REMARK    6  A    between atoms: _17  and  _19
REMARK    7  A    between atoms: _19  and  _20
REMARK    8  A    between atoms: _19  and  _22
REMARK    9  A    between atoms: _22  and  _23
REMARK   10  A    between atoms: _26  and  _28
REMARK   11  A    between atoms: _28  and  _29
REMARK   12  A    between atoms: _28  and  _31
REMARK   13  A    between atoms: _31  and  _32
REMARK   14  A    between atoms: _35  and  _37
REMARK   15  A    between atoms: _37  and  _38
REMARK   16  A    between atoms: _40  and  _42
REMARK   17  A    between atoms: _42  and  _43
REMARK   18  A    between atoms: _42  and  _45
REMARK   19  A    between atoms: _45  and  _46
REMARK   20  A    between atoms: _49  and  _51
REMARK   21  A    between atoms: _51  and  _52
REMARK   22  A    between atoms: _51  and  _54
REMARK   23  A    between atoms: _54  and  _55
REMARK   24  A    between atoms: _58  and  _60
REMARK   25  A    between atoms: _60  and  _61
REMARK   26  A    between atoms: _63  and  _65
REMARK   27  A    between atoms: _65  and  _66
REMARK   28  A    between atoms: _65  and  _68
REMARK   29  A    between atoms: _68  and  _69
REMARK   30  A    between atoms: _72  and  _74
REMARK   31  A    between atoms: _74  and  _75
REMARK   32  A    between atoms: _77  and  _79
REMARK   33  A    between atoms: _79  and  _80
REMARK   34  A    between atoms: _79  and  _82
REMARK   35  A    between atoms: _85  and  _87
REMARK   36  A    between atoms: _87  and  _88
REMARK   37  A    between atoms: _90  and  _92
REMARK   38  A    between atoms: _92  and  _93
REMARK   39  A    between atoms: _92  and  _95
REMARK   40  A    between atoms: _95  and  _96
REMARK   41  A    between atoms: _98  and  _100
REMARK   42  A    between atoms: _100  and  _101
REMARK   43  A    between atoms: _100  and  _103
REMARK   44  A    between atoms: _103  and  _104
REMARK   45  A    between atoms: _115  and  _116
REMARK   46  A    between atoms: _121  and  _123
REMARK   47  A    between atoms: _123  and  _124
REMARK   48  A    between atoms: _123  and  _126
REMARK   49  A    between atoms: _126  and  _127
REMARK   50  A    between atoms: _132  and  _134
REMARK   51  A    between atoms: _134  and  _135
REMARK   52  A    between atoms: _134  and  _137
REMARK   53  A    between atoms: _137  and  _138
REMARK   54  A    between atoms: _144  and  _145
REMARK   55  A    between atoms: _150  and  _152
REMARK   56  A    between atoms: _152  and  _153
REMARK   57  A    between atoms: _156  and  _158
REMARK   58  A    between atoms: _158  and  _159
REMARK   59  A    between atoms: _158  and  _161
REMARK   60  A    between atoms: _161  and  _162
REMARK   61  A    between atoms: _167  and  _168
REMARK   62  A    between atoms: _170  and  _172
REMARK   63  A    between atoms: _172  and  _173
REMARK   64  A    between atoms: _172  and  _175
REMARK   65  A    between atoms: _175  and  _176
REMARK   66  A    between atoms: _183  and  _184
REMARK   67  A    between atoms: _184  and  _200
REMARK   68  A    between atoms: _185  and  _187
REMARK   69  A    between atoms: _187  and  _188
REMARK   70  A    between atoms: _188  and  _189
REMARK   71  A    between atoms: _193  and  _195
REMARK   72  A    between atoms: _195  and  _196
REMARK   73  A    between atoms: _195  and  _203
REMARK   74  A    between atoms: _196  and  _197
REMARK   75  A    between atoms: _197  and  _198
REMARK   76  A    between atoms: _198  and  _199
REMARK   77  A    between atoms: _199  and  _200
REMARK   78  A    between atoms: _205  and  _207
REMARK   79  A    between atoms: _207  and  _208
REMARK   80  A    between atoms: _207  and  _210
REMARK   81  A    between atoms: _210  and  _211
REMARK   82  A    between atoms: _216  and  _217
REMARK   83  A    between atoms: _219  and  _221
REMARK   84  A    between atoms: _221  and  _222
REMARK   85  A    between atoms: _221  and  _224
REMARK   86  A    between atoms: _224  and  _225
REMARK   87  A    between atoms: _225  and  _226
REMARK   88  A    between atoms: _226  and  _227
REMARK   89  A    between atoms: _236  and  _238
REMARK   90  A    between atoms: _238  and  _239
REMARK   91  A    between atoms: _238  and  _241
REMARK   92  A    between atoms: _241  and  _242
REMARK   93  A    between atoms: _242  and  _243
REMARK   94  A    between atoms: _245  and  _247
REMARK   95  A    between atoms: _247  and  _248
REMARK   96  A    between atoms: _247  and  _250
REMARK   97  A    between atoms: _250  and  _251
REMARK   98  A    between atoms: _257  and  _259
REMARK   99  A    between atoms: _259  and  _260
REMARK  100  A    between atoms: _259  and  _262
REMARK  101  A    between atoms: _265  and  _267
REMARK  102  A    between atoms: _267  and  _268
REMARK  103  A    between atoms: _267  and  _270
REMARK  104  A    between atoms: _270  and  _271
REMARK  105  A    between atoms: _271  and  _272
REMARK  106  A    between atoms: _272  and  _273
REMARK  107  A    between atoms: _282  and  _284
REMARK  108  A    between atoms: _284  and  _285
REMARK  109  A    between atoms: _284  and  _287
REMARK  110  A    between atoms: _287  and  _288
REMARK  111  A    between atoms: _293  and  _295
REMARK  112  A    between atoms: _295  and  _296
REMARK  113  A    between atoms: _295  and  _298
REMARK  114  A    between atoms: _298  and  _299
REMARK  115  A    between atoms: _304  and  _305
REMARK  116  A    between atoms: _307  and  _309
REMARK  117  A    between atoms: _309  and  _310
REMARK  118  A    between atoms: _309  and  _312
REMARK  119  A    between atoms: _312  and  _313
REMARK  120  A    between atoms: _313  and  _314
REMARK  121  A    between atoms: _314  and  _315
REMARK  122  A    between atoms: _324  and  _326
REMARK  123  A    between atoms: _326  and  _327
REMARK  124  A    between atoms: _326  and  _329
REMARK  125  A    between atoms: _329  and  _330
REMARK  126  A    between atoms: _335  and  _336
REMARK  127  A    between atoms: _338  and  _340
REMARK  128  A    between atoms: _340  and  _341
REMARK  129  A    between atoms: _340  and  _343
REMARK  130  A    between atoms: _343  and  _344
REMARK  131  A    between atoms: _346  and  _348
REMARK  132  A    between atoms: _348  and  _349
REMARK  133  A    between atoms: _348  and  _351
REMARK  134  A    between atoms: _351  and  _352
REMARK                            x       y       z     vdW  Elec       q    Type
REMARK                         _______ _______ _______ _____ _____    ______ ____
ROOT
ATOM      1  CG  TYR A   1      38.556  23.781 -11.327  0.00  0.00    -0.020 A 
ATOM      2  CD2 TYR A   1      37.593  22.791 -11.183  0.00  0.00    -0.001 A 
ATOM      3  CE2 TYR A   1      37.328  21.902 -12.258  0.00  0.00    +0.036 A 
ATOM      4  CZ  TYR A   1      38.009  22.057 -13.438  0.00  0.00    +0.134 A 
ATOM      5  CE1 TYR A   1      38.960  23.044 -13.600  0.00  0.00    +0.036 A 
ATOM      6  CD1 TYR A   1      39.225  23.898 -12.550  0.00  0.00    -0.001 A 
ENDROOT
BRANCH   4   7
ATOM      7  OH  TYR A   1      37.762  21.188 -14.474  0.00  0.00    -0.506 OA
ATOM      8  HH  TYR A   1      37.060  20.545 -14.203  0.00  0.00    +0.292 HD
ENDBRANCH   4   7
BRANCH   1   9
ATOM      9  CB  TYR A   1      38.840  24.755 -10.205  0.00  0.00    +0.051 C 
BRANCH   9  10
ATOM     10  CA  TYR A   1      37.950  26.004 -10.264  0.00  0.00    +0.137 C 
BRANCH  10  11
ATOM     11  N   TYR A   1      37.742  26.439 -11.662  0.00  0.00    -0.239 NA
ATOM     12  H   TYR A   1      37.961  25.767 -12.425  0.00  0.00    +0.142 HD
ENDBRANCH  10  11
BRANCH  10  13
ATOM     13  C   TYR A   1      38.546  27.051  -9.346  0.00  0.00    +0.224 C 
ATOM     14  O   TYR A   1      37.957  27.346  -8.314  0.00  0.00    -0.287 OA
ENDBRANCH  10  13
ENDBRANCH   9  10
ENDBRANCH   1   9
TORSDOF 5
REMARK  Name = ../refined-set-2016/1tok/1tok_pocket.pdb
REMARK  134 active torsions:
REMARK  status: ('A' for Active; 'I' for Inactive)
REMARK    1  A    between atoms: _1  and  _3
REMARK    2  A    between atoms: _3  and  _4
REMARK    3  A    between atoms: _3  and  _6
REMARK    4  A    between atoms: _6  and  _7
REMARK    5  A    between atoms: _11  and  _12
REMARK    6  A    between atoms: _17  and  _19
REMARK    7  A    between atoms: _19  and  _20
REMARK    8  A    between atoms: _19  and  _22
REMARK    9  A    between atoms: _22  and  _23
REMARK   10  A    between atoms: _26  and  _28
REMARK   11  A    between atoms: _28  and  _29
REMARK   12  A    between atoms: _28  and  _31
REMARK   13  A    between atoms: _31  and  _32
REMARK   14  A    between atoms: _35  and  _37
REMARK   15  A    between atoms: _37  and  _38
REMARK   16  A    between atoms: _40  and  _42
REMARK   17  A    between atoms: _42  and  _43
REMARK   18  A    between atoms: _42  and  _45
REMARK   19  A    between atoms: _45  and  _46
REMARK   20  A    between atoms: _49  and  _51
REMARK   21  A    between atoms: _51  and  _52
REMARK   22  A    between atoms: _51  and  _54
REMARK   23  A    between atoms: _54  and  _55
REMARK   24  A    between atoms: _58  and  _60
REMARK   25  A    between atoms: _60  and  _61
REMARK   26  A    between atoms: _63  and  _65
REMARK   27  A    between atoms: _65  and  _66
REMARK   28  A    between atoms: _65  and  _68
REMARK   29  A    between atoms: _68  and  _69
REMARK   30  A    between atoms: _72  and  _74
REMARK   31  A    between atoms: _74  and  _75
REMARK   32  A    between atoms: _77  and  _79
REMARK   33  A    between atoms: _79  and  _80
REMARK   34  A    between atoms: _79  and  _82
REMARK   35  A    between atoms: _85  and  _87
REMARK   36  A    between atoms: _87  and  _88
REMARK   37  A    between atoms: _90  and  _92
REMARK   38  A    between atoms: _92  and  _93
REMARK   39  A    between atoms: _92  and  _95
REMARK   40  A    between atoms: _95  and  _96
REMARK   41  A    between atoms: _98  and  _100
REMARK   42  A    between atoms: _100  and  _101
REMARK   43  A    between atoms: _100  and  _103
REMARK   44  A    between atoms: _103  and  _104
REMARK   45  A    between atoms: _115  and  _116
REMARK   46  A    between atoms: _121  and  _123
REMARK   47  A    between atoms: _123  and  _124
REMARK   48  A    between atoms: _123  and  _126
REMARK   49  A    between atoms: _126  and  _127
REMARK   50  A    between atoms: _132  and  _134
REMARK   51  A    between atoms: _134  and  _135
REMARK   52  A    between atoms: _134  and  _137
REMARK   53  A    between atoms: _137  and  _138
REMARK   54  A    between atoms: _144  and  _145
REMARK   55  A    between atoms: _150  and  _152
REMARK   56  A    between atoms: _152  and  _153
REMARK   57  A    between atoms: _156  and  _158
REMARK   58  A    between atoms: _158  and  _159
REMARK   59  A    between atoms: _158  and  _161
REMARK   60  A    between atoms: _161  and  _162
REMARK   61  A    between atoms: _167  and  _168
REMARK   62  A    between atoms: _170  and  _172
REMARK   63  A    between atoms: _172  and  _173
REMARK   64  A    between atoms: _172  and  _175
REMARK   65  A    between atoms: _175  and  _176
REMARK   66  A    between atoms: _183  and  _184
REMARK   67  A    between atoms: _184  and  _200
REMARK   68  A    between atoms: _185  and  _187
REMARK   69  A    between atoms: _187  and  _188
REMARK   70  A    between atoms: _188  and  _189
REMARK   71  A    between atoms: _193  and  _195
REMARK   72  A    between atoms: _195  and  _196
REMARK   73  A    between atoms: _195  and  _203
REMARK   74  A    between atoms: _196  and  _197
REMARK   75  A    between atoms: _197  and  _198
REMARK   76  A    between atoms: _198  and  _199
REMARK   77  A    between atoms: _199  and  _200
REMARK   78  A    between atoms: _205  and  _207
REMARK   79  A    between atoms: _207  and  _208
REMARK   80  A    between atoms: _207  and  _210
REMARK   81  A    between atoms: _210  and  _211
REMARK   82  A    between atoms: _216  and  _217
REMARK   83  A    between atoms: _219  and  _221
REMARK   84  A    between atoms: _221  and  _222
REMARK   85  A    between atoms: _221  and  _224
REMARK   86  A    between atoms: _224  and  _225
REMARK   87  A    between atoms: _225  and  _226
REMARK   88  A    between atoms: _226  and  _227
REMARK   89  A    between atoms: _236  and  _238
REMARK   90  A    between atoms: _238  and  _239
REMARK   91  A    between atoms: _238  and  _241
REMARK   92  A    between atoms: _241  and  _242
REMARK   93  A    between atoms: _242  and  _243
REMARK   94  A    between atoms: _245  and  _247
REMARK   95  A    between atoms: _247  and  _248
REMARK   96  A    between atoms: _247  and  _250
REMARK   97  A    between atoms: _250  and  _251
REMARK   98  A    between atoms: _257  and  _259
REMARK   99  A    between atoms: _259  and  _260
REMARK  100  A    between atoms: _259  and  _262
REMARK  101  A    between atoms: _265  and  _267
REMARK  102  A    between atoms: _267  and  _268
REMARK  103  A    between atoms: _267  and  _270
REMARK  104  A    between atoms: _270  and  _271
REMARK  105  A    between atoms: _271  and  _272
REMARK  106  A    between atoms: _272  and  _273
REMARK  107  A    between atoms: _282  and  _284
REMARK  108  A    between atoms: _284  and  _285
REMARK  109  A    between atoms: _284  and  _287
REMARK  110  A    between atoms: _287  and  _288
REMARK  111  A    between atoms: _293  and  _295
REMARK  112  A    between atoms: _295  and  _296
REMARK  113  A    between atoms: _295  and  _298
REMARK  114  A    between atoms: _298  and  _299
REMARK  115  A    between atoms: _304  and  _305
REMARK  116  A    between atoms: _307  and  _309
REMARK  117  A    between atoms: _309  and  _310
REMARK  118  A    between atoms: _309  and  _312
REMARK  119  A    between atoms: _312  and  _313
REMARK  120  A    between atoms: _313  and  _314
REMARK  121  A    between atoms: _314  and  _315
REMARK  122  A    between atoms: _324  and  _326
REMARK  123  A    between atoms: _326  and  _327
REMARK  124  A    between atoms: _326  and  _329
REMARK  125  A    between atoms: _329  and  _330
REMARK  126  A    between atoms: _335  and  _336
REMARK  127  A    between atoms: _338  and  _340
REMARK  128  A    between atoms: _340  and  _341
REMARK  129  A    between atoms: _340  and  _343
REMARK  130  A    between atoms: _343  and  _344
REMARK  131  A    between atoms: _346  and  _348
REMARK  132  A    between atoms: _348  and  _349
REMARK  133  A    between atoms: _348  and  _351
REMARK  134  A    between atoms: _351  and  _352
REMARK                            x       y       z     vdW  Elec       q    Type
REMARK                         _______ _______ _______ _____ _____    ______ ____
ROOT
ATOM      1  NE  ARG A   1      37.187  28.209  -4.331  0.00  0.00    -0.265 N 
ATOM      2  HE  ARG A   1      37.296  28.467  -3.329  0.00  0.00    +0.259 HD
ATOM      3  CZ  ARG A   1      36.348  27.224  -4.623  0.00  0.00    +0.342 C 
ATOM      4  NH2 ARG A   1      35.673  26.628  -3.638  0.00  0.00    -0.292 N 
ATOM      5 HH21 ARG A   1      35.808  26.937  -2.654  0.00  0.00    +0.255 HD
ATOM      6 HH22 ARG A   1      35.012  25.855  -3.854  0.00  0.00    +0.255 HD
ATOM      7  NH1 ARG A   1      36.158  26.833  -5.898  0.00  0.00    -0.292 N 
ATOM      8 HH11 ARG A   1      35.497  26.059  -6.112  0.00  0.00    +0.255 HD
ATOM      9 HH12 ARG A   1      36.672  27.305  -6.669  0.00  0.00    +0.255 HD
ENDROOT
BRANCH   1  10
ATOM     10  CD  ARG A   1      37.973  28.963  -5.316  0.00  0.00    +0.174 C 
BRANCH  10  11
ATOM     11  CG  ARG A   1      37.682  30.479  -5.178  0.00  0.00    +0.045 C 
BRANCH  11  12
ATOM     12  CB  ARG A   1      36.214  30.875  -5.510  0.00  0.00    +0.029 C 
BRANCH  12  13
ATOM     13  CA  ARG A   1      35.686  30.303  -6.850  0.00  0.00    +0.133 C 
BRANCH  13  14
ATOM     14  N   ARG A   1      36.671  30.439  -7.952  0.00  0.00    -0.239 NA
ATOM     15  H   ARG A   1      37.003  29.577  -8.431  0.00  0.00    +0.142 HD
ENDBRANCH  13  14
BRANCH  13  16
ATOM     16  C   ARG A   1      34.354  30.939  -7.205  0.00  0.00    +0.224 C 
ATOM     17  O   ARG A   1      33.999  32.021  -6.694  0.00  0.00    -0.287 OA
ENDBRANCH  13  16
ENDBRANCH  12  13
ENDBRANCH  11  12
ENDBRANCH  10  11
ENDBRANCH   1  10
TORSDOF 6
REMARK  Name = ../refined-set-2016/1tok/1tok_pocket.pdb
REMARK  134 active torsions:
REMARK  status: ('A' for Active; 'I' for Inactive)
REMARK    1  A    between atoms: _1  and  _3
REMARK    2  A    between atoms: _3  and  _4
REMARK    3  A    between atoms: _3  and  _6
REMARK    4  A    between atoms: _6  and  _7
REMARK    5  A    between atoms: _11  and  _12
REMARK    6  A    between atoms: _17  and  _19
REMARK    7  A    between atoms: _19  and  _20
REMARK    8  A    between atoms: _19  and  _22
REMARK    9  A    between atoms: _22  and  _23
REMARK   10  A    between atoms: _26  and  _28
REMARK   11  A    between atoms: _28  and  _29
REMARK   12  A    between atoms: _28  and  _31
REMARK   13  A    between atoms: _31  and  _32
REMARK   14  A    between atoms: _35  and  _37
REMARK   15  A    between atoms: _37  and  _38
REMARK   16  A    between atoms: _40  and  _42
REMARK   17  A    between atoms: _42  and  _43
REMARK   18  A    between atoms: _42  and  _45
REMARK   19  A    between atoms: _45  and  _46
REMARK   20  A    between atoms: _49  and  _51
REMARK   21  A    between atoms: _51  and  _52
REMARK   22  A    between atoms: _51  and  _54
REMARK   23  A    between atoms: _54  and  _55
REMARK   24  A    between atoms: _58  and  _60
REMARK   25  A    between atoms: _60  and  _61
REMARK   26  A    between atoms: _63  and  _65
REMARK   27  A    between atoms: _65  and  _66
REMARK   28  A    between atoms: _65  and  _68
REMARK   29  A    between atoms: _68  and  _69
REMARK   30  A    between atoms: _72  and  _74
REMARK   31  A    between atoms: _74  and  _75
REMARK   32  A    between atoms: _77  and  _79
REMARK   33  A    between atoms: _79  and  _80
REMARK   34  A    between atoms: _79  and  _82
REMARK   35  A    between atoms: _85  and  _87
REMARK   36  A    between atoms: _87  and  _88
REMARK   37  A    between atoms: _90  and  _92
REMARK   38  A    between atoms: _92  and  _93
REMARK   39  A    between atoms: _92  and  _95
REMARK   40  A    between atoms: _95  and  _96
REMARK   41  A    between atoms: _98  and  _100
REMARK   42  A    between atoms: _100  and  _101
REMARK   43  A    between atoms: _100  and  _103
REMARK   44  A    between atoms: _103  and  _104
REMARK   45  A    between atoms: _115  and  _116
REMARK   46  A    between atoms: _121  and  _123
REMARK   47  A    between atoms: _123  and  _124
REMARK   48  A    between atoms: _123  and  _126
REMARK   49  A    between atoms: _126  and  _127
REMARK   50  A    between atoms: _132  and  _134
REMARK   51  A    between atoms: _134  and  _135
REMARK   52  A    between atoms: _134  and  _137
REMARK   53  A    between atoms: _137  and  _138
REMARK   54  A    between atoms: _144  and  _145
REMARK   55  A    between atoms: _150  and  _152
REMARK   56  A    between atoms: _152  and  _153
REMARK   57  A    between atoms: _156  and  _158
REMARK   58  A    between atoms: _158  and  _159
REMARK   59  A    between atoms: _158  and  _161
REMARK   60  A    between atoms: _161  and  _162
REMARK   61  A    between atoms: _167  and  _168
REMARK   62  A    between atoms: _170  and  _172
REMARK   63  A    between atoms: _172  and  _173
REMARK   64  A    between atoms: _172  and  _175
REMARK   65  A    between atoms: _175  and  _176
REMARK   66  A    between atoms: _183  and  _184
REMARK   67  A    between atoms: _184  and  _200
REMARK   68  A    between atoms: _185  and  _187
REMARK   69  A    between atoms: _187  and  _188
REMARK   70  A    between atoms: _188  and  _189
REMARK   71  A    between atoms: _193  and  _195
REMARK   72  A    between atoms: _195  and  _196
REMARK   73  A    between atoms: _195  and  _203
REMARK   74  A    between atoms: _196  and  _197
REMARK   75  A    between atoms: _197  and  _198
REMARK   76  A    between atoms: _198  and  _199
REMARK   77  A    between atoms: _199  and  _200
REMARK   78  A    between atoms: _205  and  _207
REMARK   79  A    between atoms: _207  and  _208
REMARK   80  A    between atoms: _207  and  _210
REMARK   81  A    between atoms: _210  and  _211
REMARK   82  A    between atoms: _216  and  _217
REMARK   83  A    between atoms: _219  and  _221
REMARK   84  A    between atoms: _221  and  _222
REMARK   85  A    between atoms: _221  and  _224
REMARK   86  A    between atoms: _224  and  _225
REMARK   87  A    between atoms: _225  and  _226
REMARK   88  A    between atoms: _226  and  _227
REMARK   89  A    between atoms: _236  and  _238
REMARK   90  A    between atoms: _238  and  _239
REMARK   91  A    between atoms: _238  and  _241
REMARK   92  A    between atoms: _241  and  _242
REMARK   93  A    between atoms: _242  and  _243
REMARK   94  A    between atoms: _245  and  _247
REMARK   95  A    between atoms: _247  and  _248
REMARK   96  A    between atoms: _247  and  _250
REMARK   97  A    between atoms: _250  and  _251
REMARK   98  A    between atoms: _257  and  _259
REMARK   99  A    between atoms: _259  and  _260
REMARK  100  A    between atoms: _259  and  _262
REMARK  101  A    between atoms: _265  and  _267
REMARK  102  A    between atoms: _267  and  _268
REMARK  103  A    between atoms: _267  and  _270
REMARK  104  A    between atoms: _270  and  _271
REMARK  105  A    between atoms: _271  and  _272
REMARK  106  A    between atoms: _272  and  _273
REMARK  107  A    between atoms: _282  and  _284
REMARK  108  A    between atoms: _284  and  _285
REMARK  109  A    between atoms: _284  and  _287
REMARK  110  A    between atoms: _287  and  _288
REMARK  111  A    between atoms: _293  and  _295
REMARK  112  A    between atoms: _295  and  _296
REMARK  113  A    between atoms: _295  and  _298
REMARK  114  A    between atoms: _298  and  _299
REMARK  115  A    between atoms: _304  and  _305
REMARK  116  A    between atoms: _307  and  _309
REMARK  117  A    between atoms: _309  and  _310
REMARK  118  A    between atoms: _309  and  _312
REMARK  119  A    between atoms: _312  and  _313
REMARK  120  A    between atoms: _313  and  _314
REMARK  121  A    between atoms: _314  and  _315
REMARK  122  A    between atoms: _324  and  _326
REMARK  123  A    between atoms: _326  and  _327
REMARK  124  A    between atoms: _326  and  _329
REMARK  125  A    between atoms: _329  and  _330
REMARK  126  A    between atoms: _335  and  _336
REMARK  127  A    between atoms: _338  and  _340
REMARK  128  A    between atoms: _340  and  _341
REMARK  129  A    between atoms: _340  and  _343
REMARK  130  A    between atoms: _343  and  _344
REMARK  131  A    between atoms: _346  and  _348
REMARK  132  A    between atoms: _348  and  _349
REMARK  133  A    between atoms: _348  and  _351
REMARK  134  A    between atoms: _351  and  _352
REMARK                            x       y       z     vdW  Elec       q    Type
REMARK                         _______ _______ _______ _____ _____    ______ ____
ROOT
ATOM      1  C   MET A   1      34.339  11.588 -12.825  0.00  0.00    +0.238 C 
ATOM      2  N   PHE A   2      33.617  10.936 -11.921  0.00  0.00    -0.298 N 
ATOM      3  H   PHE A   2      32.601  11.131 -11.817  0.00  0.00    +0.150 HD
ATOM      4  O   MET A   1      35.466  11.244 -13.157  0.00  0.00    -0.274 OA
ENDROOT
BRANCH   1   5
ATOM      5  CA  MET A   1      33.736  12.832 -13.413  0.00  0.00    +0.146 C 
BRANCH   5   6
ATOM      6  N   MET A   1      32.290  12.891 -13.281  0.00  0.00    -0.238 NA
ATOM      7  H   MET A   1      31.879  13.399 -12.472  0.00  0.00    +0.142 HD
ENDBRANCH   5   6
BRANCH   5   8
ATOM      8  CB  MET A   1      34.376  14.009 -12.685  0.00  0.00    +0.038 C 
BRANCH   8   9
ATOM      9  CG  MET A   1      34.239  15.314 -13.398  0.00  0.00    +0.060 C 
BRANCH   9  10
ATOM     10  SD  MET A   1      35.310  16.468 -12.516  0.00  0.00    -0.139 S 
ATOM     11  CE  MET A   1      35.173  17.857 -13.624  0.00  0.00    +0.069 C 
ENDBRANCH   9  10
ENDBRANCH   8   9
ENDBRANCH   5   8
ENDBRANCH   1   5
BRANCH   2  12
ATOM     12  CA  PHE A   2      34.266   9.948 -11.080  0.00  0.00    +0.141 C 
BRANCH  12  13
ATOM     13  C   PHE A   2      33.883   8.523 -11.407  0.00  0.00    +0.227 C 
ATOM     14  O   PHE A   2      32.790   8.253 -11.922  0.00  0.00    -0.286 OA
ENDBRANCH  12  13
BRANCH  12  15
ATOM     15  CB  PHE A   2      34.023  10.250  -9.600  0.00  0.00    +0.054 C 
BRANCH  15  16
ATOM     16  CG  PHE A   2      34.490  11.615  -9.178  0.00  0.00    -0.020 A 
ATOM     17  CD2 PHE A   2      33.569  12.618  -8.886  0.00  0.00    -0.004 A 
ATOM     18  CE2 PHE A   2      33.984  13.887  -8.485  0.00  0.00    -0.000 A 
ATOM     19  CZ  PHE A   2      35.348  14.184  -8.392  0.00  0.00    -0.000 A 
ATOM     20  CE1 PHE A   2      36.295  13.180  -8.679  0.00  0.00    -0.000 A 
ATOM     21  CD1 PHE A   2      35.860  11.898  -9.075  0.00  0.00    -0.004 A 
ENDBRANCH  15  16
ENDBRANCH  12  15
ENDBRANCH   2  12
TORSDOF 9
REMARK  Name = ../refined-set-2016/1tok/1tok_pocket.pdb
REMARK  134 active torsions:
REMARK  status: ('A' for Active; 'I' for Inactive)
REMARK    1  A    between atoms: _1  and  _3
REMARK    2  A    between atoms: _3  and  _4
REMARK    3  A    between atoms: _3  and  _6
REMARK    4  A    between atoms: _6  and  _7
REMARK    5  A    between atoms: _11  and  _12
REMARK    6  A    between atoms: _17  and  _19
REMARK    7  A    between atoms: _19  and  _20
REMARK    8  A    between atoms: _19  and  _22
REMARK    9  A    between atoms: _22  and  _23
REMARK   10  A    between atoms: _26  and  _28
REMARK   11  A    between atoms: _28  and  _29
REMARK   12  A    between atoms: _28  and  _31
REMARK   13  A    between atoms: _31  and  _32
REMARK   14  A    between atoms: _35  and  _37
REMARK   15  A    between atoms: _37  and  _38
REMARK   16  A    between atoms: _40  and  _42
REMARK   17  A    between atoms: _42  and  _43
REMARK   18  A    between atoms: _42  and  _45
REMARK   19  A    between atoms: _45  and  _46
REMARK   20  A    between atoms: _49  and  _51
REMARK   21  A    between atoms: _51  and  _52
REMARK   22  A    between atoms: _51  and  _54
REMARK   23  A    between atoms: _54  and  _55
REMARK   24  A    between atoms: _58  and  _60
REMARK   25  A    between atoms: _60  and  _61
REMARK   26  A    between atoms: _63  and  _65
REMARK   27  A    between atoms: _65  and  _66
REMARK   28  A    between atoms: _65  and  _68
REMARK   29  A    between atoms: _68  and  _69
REMARK   30  A    between atoms: _72  and  _74
REMARK   31  A    between atoms: _74  and  _75
REMARK   32  A    between atoms: _77  and  _79
REMARK   33  A    between atoms: _79  and  _80
REMARK   34  A    between atoms: _79  and  _82
REMARK   35  A    between atoms: _85  and  _87
REMARK   36  A    between atoms: _87  and  _88
REMARK   37  A    between atoms: _90  and  _92
REMARK   38  A    between atoms: _92  and  _93
REMARK   39  A    between atoms: _92  and  _95
REMARK   40  A    between atoms: _95  and  _96
REMARK   41  A    between atoms: _98  and  _100
REMARK   42  A    between atoms: _100  and  _101
REMARK   43  A    between atoms: _100  and  _103
REMARK   44  A    between atoms: _103  and  _104
REMARK   45  A    between atoms: _115  and  _116
REMARK   46  A    between atoms: _121  and  _123
REMARK   47  A    between atoms: _123  and  _124
REMARK   48  A    between atoms: _123  and  _126
REMARK   49  A    between atoms: _126  and  _127
REMARK   50  A    between atoms: _132  and  _134
REMARK   51  A    between atoms: _134  and  _135
REMARK   52  A    between atoms: _134  and  _137
REMARK   53  A    between atoms: _137  and  _138
REMARK   54  A    between atoms: _144  and  _145
REMARK   55  A    between atoms: _150  and  _152
REMARK   56  A    between atoms: _152  and  _153
REMARK   57  A    between atoms: _156  and  _158
REMARK   58  A    between atoms: _158  and  _159
REMARK   59  A    between atoms: _158  and  _161
REMARK   60  A    between atoms: _161  and  _162
REMARK   61  A    between atoms: _167  and  _168
REMARK   62  A    between atoms: _170  and  _172
REMARK   63  A    between atoms: _172  and  _173
REMARK   64  A    between atoms: _172  and  _175
REMARK   65  A    between atoms: _175  and  _176
REMARK   66  A    between atoms: _183  and  _184
REMARK   67  A    between atoms: _184  and  _200
REMARK   68  A    between atoms: _185  and  _187
REMARK   69  A    between atoms: _187  and  _188
REMARK   70  A    between atoms: _188  and  _189
REMARK   71  A    between atoms: _193  and  _195
REMARK   72  A    between atoms: _195  and  _196
REMARK   73  A    between atoms: _195  and  _203
REMARK   74  A    between atoms: _196  and  _197
REMARK   75  A    between atoms: _197  and  _198
REMARK   76  A    between atoms: _198  and  _199
REMARK   77  A    between atoms: _199  and  _200
REMARK   78  A    between atoms: _205  and  _207
REMARK   79  A    between atoms: _207  and  _208
REMARK   80  A    between atoms: _207  and  _210
REMARK   81  A    between atoms: _210  and  _211
REMARK   82  A    between atoms: _216  and  _217
REMARK   83  A    between atoms: _219  and  _221
REMARK   84  A    between atoms: _221  and  _222
REMARK   85  A    between atoms: _221  and  _224
REMARK   86  A    between atoms: _224  and  _225
REMARK   87  A    between atoms: _225  and  _226
REMARK   88  A    between atoms: _226  and  _227
REMARK   89  A    between atoms: _236  and  _238
REMARK   90  A    between atoms: _238  and  _239
REMARK   91  A    between atoms: _238  and  _241
REMARK   92  A    between atoms: _241  and  _242
REMARK   93  A    between atoms: _242  and  _243
REMARK   94  A    between atoms: _245  and  _247
REMARK   95  A    between atoms: _247  and  _248
REMARK   96  A    between atoms: _247  and  _250
REMARK   97  A    between atoms: _250  and  _251
REMARK   98  A    between atoms: _257  and  _259
REMARK   99  A    between atoms: _259  and  _260
REMARK  100  A    between atoms: _259  and  _262
REMARK  101  A    between atoms: _265  and  _267
REMARK  102  A    between atoms: _267  and  _268
REMARK  103  A    between atoms: _267  and  _270
REMARK  104  A    between atoms: _270  and  _271
REMARK  105  A    between atoms: _271  and  _272
REMARK  106  A    between atoms: _272  and  _273
REMARK  107  A    between atoms: _282  and  _284
REMARK  108  A    between atoms: _284  and  _285
REMARK  109  A    between atoms: _284  and  _287
REMARK  110  A    between atoms: _287  and  _288
REMARK  111  A    between atoms: _293  and  _295
REMARK  112  A    between atoms: _295  and  _296
REMARK  113  A    between atoms: _295  and  _298
REMARK  114  A    between atoms: _298  and  _299
REMARK  115  A    between atoms: _304  and  _305
REMARK  116  A    between atoms: _307  and  _309
REMARK  117  A    between atoms: _309  and  _310
REMARK  118  A    between atoms: _309  and  _312
REMARK  119  A    between atoms: _312  and  _313
REMARK  120  A    between atoms: _313  and  _314
REMARK  121  A    between atoms: _314  and  _315
REMARK  122  A    between atoms: _324  and  _326
REMARK  123  A    between atoms: _326  and  _327
REMARK  124  A    between atoms: _326  and  _329
REMARK  125  A    between atoms: _329  and  _330
REMARK  126  A    between atoms: _335  and  _336
REMARK  127  A    between atoms: _338  and  _340
REMARK  128  A    between atoms: _340  and  _341
REMARK  129  A    between atoms: _340  and  _343
REMARK  130  A    between atoms: _343  and  _344
REMARK  131  A    between atoms: _346  and  _348
REMARK  132  A    between atoms: _348  and  _349
REMARK  133  A    between atoms: _348  and  _351
REMARK  134  A    between atoms: _351  and  _352
REMARK                            x       y       z     vdW  Elec       q    Type
REMARK                         _______ _______ _______ _____ _____    ______ ____
ROOT
ATOM      1  CA  VAL A   1      41.002   9.031  -3.073  0.00  0.00    +0.133 C 
ENDROOT
BRANCH   1   2
ATOM      2  CB  VAL A   1      39.640   9.783  -3.133  0.00  0.00    +0.023 C 
ATOM      3  CG2 VAL A   1      39.160  10.197  -1.737  0.00  0.00    +0.002 C 
ATOM      4  CG1 VAL A   1      39.782  11.041  -4.021  0.00  0.00    +0.002 C 
ENDBRANCH   1   2
BRANCH   1   5
ATOM      5  N   VAL A   1      41.515   8.771  -4.424  0.00  0.00    -0.239 NA
ATOM      6  H   VAL A   1      40.862   8.799  -5.233  0.00  0.00    +0.142 HD
ENDBRANCH   1   5
BRANCH   1   7
ATOM      7  C   VAL A   1      40.884   7.691  -2.315  0.00  0.00    +0.224 C 
ATOM      8  O   VAL A   1      40.582   6.661  -2.931  0.00  0.00    -0.287 OA
ENDBRANCH   1   7
TORSDOF 3
REMARK  Name = ../refined-set-2016/1tok/1tok_pocket.pdb
REMARK  134 active torsions:
REMARK  status: ('A' for Active; 'I' for Inactive)
REMARK    1  A    between atoms: _1  and  _3
REMARK    2  A    between atoms: _3  and  _4
REMARK    3  A    between atoms: _3  and  _6
REMARK    4  A    between atoms: _6  and  _7
REMARK    5  A    between atoms: _11  and  _12
REMARK    6  A    between atoms: _17  and  _19
REMARK    7  A    between atoms: _19  and  _20
REMARK    8  A    between atoms: _19  and  _22
REMARK    9  A    between atoms: _22  and  _23
REMARK   10  A    between atoms: _26  and  _28
REMARK   11  A    between atoms: _28  and  _29
REMARK   12  A    between atoms: _28  and  _31
REMARK   13  A    between atoms: _31  and  _32
REMARK   14  A    between atoms: _35  and  _37
REMARK   15  A    between atoms: _37  and  _38
REMARK   16  A    between atoms: _40  and  _42
REMARK   17  A    between atoms: _42  and  _43
REMARK   18  A    between atoms: _42  and  _45
REMARK   19  A    between atoms: _45  and  _46
REMARK   20  A    between atoms: _49  and  _51
REMARK   21  A    between atoms: _51  and  _52
REMARK   22  A    between atoms: _51  and  _54
REMARK   23  A    between atoms: _54  and  _55
REMARK   24  A    between atoms: _58  and  _60
REMARK   25  A    between atoms: _60  and  _61
REMARK   26  A    between atoms: _63  and  _65
REMARK   27  A    between atoms: _65  and  _66
REMARK   28  A    between atoms: _65  and  _68
REMARK   29  A    between atoms: _68  and  _69
REMARK   30  A    between atoms: _72  and  _74
REMARK   31  A    between atoms: _74  and  _75
REMARK   32  A    between atoms: _77  and  _79
REMARK   33  A    between atoms: _79  and  _80
REMARK   34  A    between atoms: _79  and  _82
REMARK   35  A    between atoms: _85  and  _87
REMARK   36  A    between atoms: _87  and  _88
REMARK   37  A    between atoms: _90  and  _92
REMARK   38  A    between atoms: _92  and  _93
REMARK   39  A    between atoms: _92  and  _95
REMARK   40  A    between atoms: _95  and  _96
REMARK   41  A    between atoms: _98  and  _100
REMARK   42  A    between atoms: _100  and  _101
REMARK   43  A    between atoms: _100  and  _103
REMARK   44  A    between atoms: _103  and  _104
REMARK   45  A    between atoms: _115  and  _116
REMARK   46  A    between atoms: _121  and  _123
REMARK   47  A    between atoms: _123  and  _124
REMARK   48  A    between atoms: _123  and  _126
REMARK   49  A    between atoms: _126  and  _127
REMARK   50  A    between atoms: _132  and  _134
REMARK   51  A    between atoms: _134  and  _135
REMARK   52  A    between atoms: _134  and  _137
REMARK   53  A    between atoms: _137  and  _138
REMARK   54  A    between atoms: _144  and  _145
REMARK   55  A    between atoms: _150  and  _152
REMARK   56  A    between atoms: _152  and  _153
REMARK   57  A    between atoms: _156  and  _158
REMARK   58  A    between atoms: _158  and  _159
REMARK   59  A    between atoms: _158  and  _161
REMARK   60  A    between atoms: _161  and  _162
REMARK   61  A    between atoms: _167  and  _168
REMARK   62  A    between atoms: _170  and  _172
REMARK   63  A    between atoms: _172  and  _173
REMARK   64  A    between atoms: _172  and  _175
REMARK   65  A    between atoms: _175  and  _176
REMARK   66  A    between atoms: _183  and  _184
REMARK   67  A    between atoms: _184  and  _200
REMARK   68  A    between atoms: _185  and  _187
REMARK   69  A    between atoms: _187  and  _188
REMARK   70  A    between atoms: _188  and  _189
REMARK   71  A    between atoms: _193  and  _195
REMARK   72  A    between atoms: _195  and  _196
REMARK   73  A    between atoms: _195  and  _203
REMARK   74  A    between atoms: _196  and  _197
REMARK   75  A    between atoms: _197  and  _198
REMARK   76  A    between atoms: _198  and  _199
REMARK   77  A    between atoms: _199  and  _200
REMARK   78  A    between atoms: _205  and  _207
REMARK   79  A    between atoms: _207  and  _208
REMARK   80  A    between atoms: _207  and  _210
REMARK   81  A    between atoms: _210  and  _211
REMARK   82  A    between atoms: _216  and  _217
REMARK   83  A    between atoms: _219  and  _221
REMARK   84  A    between atoms: _221  and  _222
REMARK   85  A    between atoms: _221  and  _224
REMARK   86  A    between atoms: _224  and  _225
REMARK   87  A    between atoms: _225  and  _226
REMARK   88  A    between atoms: _226  and  _227
REMARK   89  A    between atoms: _236  and  _238
REMARK   90  A    between atoms: _238  and  _239
REMARK   91  A    between atoms: _238  and  _241
REMARK   92  A    between atoms: _241  and  _242
REMARK   93  A    between atoms: _242  and  _243
REMARK   94  A    between atoms: _245  and  _247
REMARK   95  A    between atoms: _247  and  _248
REMARK   96  A    between atoms: _247  and  _250
REMARK   97  A    between atoms: _250  and  _251
REMARK   98  A    between atoms: _257  and  _259
REMARK   99  A    between atoms: _259  and  _260
REMARK  100  A    between atoms: _259  and  _262
REMARK  101  A    between atoms: _265  and  _267
REMARK  102  A    between atoms: _267  and  _268
REMARK  103  A    between atoms: _267  and  _270
REMARK  104  A    between atoms: _270  and  _271
REMARK  105  A    between atoms: _271  and  _272
REMARK  106  A    between atoms: _272  and  _273
REMARK  107  A    between atoms: _282  and  _284
REMARK  108  A    between atoms: _284  and  _285
REMARK  109  A    between atoms: _284  and  _287
REMARK  110  A    between atoms: _287  and  _288
REMARK  111  A    between atoms: _293  and  _295
REMARK  112  A    between atoms: _295  and  _296
REMARK  113  A    between atoms: _295  and  _298
REMARK  114  A    between atoms: _298  and  _299
REMARK  115  A    between atoms: _304  and  _305
REMARK  116  A    between atoms: _307  and  _309
REMARK  117  A    between atoms: _309  and  _310
REMARK  118  A    between atoms: _309  and  _312
REMARK  119  A    between atoms: _312  and  _313
REMARK  120  A    between atoms: _313  and  _314
REMARK  121  A    between atoms: _314  and  _315
REMARK  122  A    between atoms: _324  and  _326
REMARK  123  A    between atoms: _326  and  _327
REMARK  124  A    between atoms: _326  and  _329
REMARK  125  A    between atoms: _329  and  _330
REMARK  126  A    between atoms: _335  and  _336
REMARK  127  A    between atoms: _338  and  _340
REMARK  128  A    between atoms: _340  and  _341
REMARK  129  A    between atoms: _340  and  _343
REMARK  130  A    between atoms: _343  and  _344
REMARK  131  A    between atoms: _346  and  _348
REMARK  132  A    between atoms: _348  and  _349
REMARK  133  A    between atoms: _348  and  _351
REMARK  134  A    between atoms: _351  and  _352
REMARK                            x       y       z     vdW  Elec       q    Type
REMARK                         _______ _______ _______ _____ _____    ______ ____
ROOT
ATOM      1  NE  ARG A   1      36.607  11.672  -5.816  0.00  0.00    -0.265 N 
ATOM      2  CZ  ARG A   1      36.659  12.951  -5.463  0.00  0.00    +0.342 C 
ATOM      3  NH2 ARG A   1      35.598  13.529  -4.887  0.00  0.00    -0.292 N 
ATOM      4 HH21 ARG A   1      35.638  14.531  -4.610  0.00  0.00    +0.255 HD
ATOM      5 HH22 ARG A   1      34.734  12.976  -4.716  0.00  0.00    +0.255 HD
ATOM      6  NH1 ARG A   1      37.765  13.655  -5.713  0.00  0.00    -0.292 N 
ATOM      7 HH11 ARG A   1      37.816  14.657  -5.441  0.00  0.00    +0.255 HD
ATOM      8 HH12 ARG A   1      38.576  13.201  -6.180  0.00  0.00    +0.255 HD
ATOM      9  HE  ARG A   1      37.459  11.246  -6.234  0.00  0.00    +0.259 HD
ENDROOT
BRANCH   1  10
ATOM     10  CD  ARG A   1      35.420  10.821  -5.653  0.00  0.00    +0.174 C 
BRANCH  10  11
ATOM     11  CG  ARG A   1      35.680   9.417  -6.176  0.00  0.00    +0.045 C 
BRANCH  11  12
ATOM     12  CB  ARG A   1      36.538   8.565  -5.263  0.00  0.00    +0.029 C 
BRANCH  12  13
ATOM     13  CA  ARG A   1      37.064   7.283  -5.915  0.00  0.00    +0.133 C 
BRANCH  13  14
ATOM     14  N   ARG A   1      37.477   6.339  -4.879  0.00  0.00    -0.239 NA
ATOM     15  H   ARG A   1      37.465   6.640  -3.884  0.00  0.00    +0.142 HD
ENDBRANCH  13  14
BRANCH  13  16
ATOM     16  C   ARG A   1      38.198   7.629  -6.893  0.00  0.00    +0.224 C 
ATOM     17  O   ARG A   1      39.245   8.147  -6.475  0.00  0.00    -0.287 OA
ENDBRANCH  13  16
ENDBRANCH  12  13
ENDBRANCH  11  12
ENDBRANCH  10  11
ENDBRANCH   1  10
TORSDOF 6
REMARK  Name = ../refined-set-2016/1tok/1tok_pocket.pdb
REMARK  134 active torsions:
REMARK  status: ('A' for Active; 'I' for Inactive)
REMARK    1  A    between atoms: _1  and  _3
REMARK    2  A    between atoms: _3  and  _4
REMARK    3  A    between atoms: _3  and  _6
REMARK    4  A    between atoms: _6  and  _7
REMARK    5  A    between atoms: _11  and  _12
REMARK    6  A    between atoms: _17  and  _19
REMARK    7  A    between atoms: _19  and  _20
REMARK    8  A    between atoms: _19  and  _22
REMARK    9  A    between atoms: _22  and  _23
REMARK   10  A    between atoms: _26  and  _28
REMARK   11  A    between atoms: _28  and  _29
REMARK   12  A    between atoms: _28  and  _31
REMARK   13  A    between atoms: _31  and  _32
REMARK   14  A    between atoms: _35  and  _37
REMARK   15  A    between atoms: _37  and  _38
REMARK   16  A    between atoms: _40  and  _42
REMARK   17  A    between atoms: _42  and  _43
REMARK   18  A    between atoms: _42  and  _45
REMARK   19  A    between atoms: _45  and  _46
REMARK   20  A    between atoms: _49  and  _51
REMARK   21  A    between atoms: _51  and  _52
REMARK   22  A    between atoms: _51  and  _54
REMARK   23  A    between atoms: _54  and  _55
REMARK   24  A    between atoms: _58  and  _60
REMARK   25  A    between atoms: _60  and  _61
REMARK   26  A    between atoms: _63  and  _65
REMARK   27  A    between atoms: _65  and  _66
REMARK   28  A    between atoms: _65  and  _68
REMARK   29  A    between atoms: _68  and  _69
REMARK   30  A    between atoms: _72  and  _74
REMARK   31  A    between atoms: _74  and  _75
REMARK   32  A    between atoms: _77  and  _79
REMARK   33  A    between atoms: _79  and  _80
REMARK   34  A    between atoms: _79  and  _82
REMARK   35  A    between atoms: _85  and  _87
REMARK   36  A    between atoms: _87  and  _88
REMARK   37  A    between atoms: _90  and  _92
REMARK   38  A    between atoms: _92  and  _93
REMARK   39  A    between atoms: _92  and  _95
REMARK   40  A    between atoms: _95  and  _96
REMARK   41  A    between atoms: _98  and  _100
REMARK   42  A    between atoms: _100  and  _101
REMARK   43  A    between atoms: _100  and  _103
REMARK   44  A    between atoms: _103  and  _104
REMARK   45  A    between atoms: _115  and  _116
REMARK   46  A    between atoms: _121  and  _123
REMARK   47  A    between atoms: _123  and  _124
REMARK   48  A    between atoms: _123  and  _126
REMARK   49  A    between atoms: _126  and  _127
REMARK   50  A    between atoms: _132  and  _134
REMARK   51  A    between atoms: _134  and  _135
REMARK   52  A    between atoms: _134  and  _137
REMARK   53  A    between atoms: _137  and  _138
REMARK   54  A    between atoms: _144  and  _145
REMARK   55  A    between atoms: _150  and  _152
REMARK   56  A    between atoms: _152  and  _153
REMARK   57  A    between atoms: _156  and  _158
REMARK   58  A    between atoms: _158  and  _159
REMARK   59  A    between atoms: _158  and  _161
REMARK   60  A    between atoms: _161  and  _162
REMARK   61  A    between atoms: _167  and  _168
REMARK   62  A    between atoms: _170  and  _172
REMARK   63  A    between atoms: _172  and  _173
REMARK   64  A    between atoms: _172  and  _175
REMARK   65  A    between atoms: _175  and  _176
REMARK   66  A    between atoms: _183  and  _184
REMARK   67  A    between atoms: _184  and  _200
REMARK   68  A    between atoms: _185  and  _187
REMARK   69  A    between atoms: _187  and  _188
REMARK   70  A    between atoms: _188  and  _189
REMARK   71  A    between atoms: _193  and  _195
REMARK   72  A    between atoms: _195  and  _196
REMARK   73  A    between atoms: _195  and  _203
REMARK   74  A    between atoms: _196  and  _197
REMARK   75  A    between atoms: _197  and  _198
REMARK   76  A    between atoms: _198  and  _199
REMARK   77  A    between atoms: _199  and  _200
REMARK   78  A    between atoms: _205  and  _207
REMARK   79  A    between atoms: _207  and  _208
REMARK   80  A    between atoms: _207  and  _210
REMARK   81  A    between atoms: _210  and  _211
REMARK   82  A    between atoms: _216  and  _217
REMARK   83  A    between atoms: _219  and  _221
REMARK   84  A    between atoms: _221  and  _222
REMARK   85  A    between atoms: _221  and  _224
REMARK   86  A    between atoms: _224  and  _225
REMARK   87  A    between atoms: _225  and  _226
REMARK   88  A    between atoms: _226  and  _227
REMARK   89  A    between atoms: _236  and  _238
REMARK   90  A    between atoms: _238  and  _239
REMARK   91  A    between atoms: _238  and  _241
REMARK   92  A    between atoms: _241  and  _242
REMARK   93  A    between atoms: _242  and  _243
REMARK   94  A    between atoms: _245  and  _247
REMARK   95  A    between atoms: _247  and  _248
REMARK   96  A    between atoms: _247  and  _250
REMARK   97  A    between atoms: _250  and  _251
REMARK   98  A    between atoms: _257  and  _259
REMARK   99  A    between atoms: _259  and  _260
REMARK  100  A    between atoms: _259  and  _262
REMARK  101  A    between atoms: _265  and  _267
REMARK  102  A    between atoms: _267  and  _268
REMARK  103  A    between atoms: _267  and  _270
REMARK  104  A    between atoms: _270  and  _271
REMARK  105  A    between atoms: _271  and  _272
REMARK  106  A    between atoms: _272  and  _273
REMARK  107  A    between atoms: _282  and  _284
REMARK  108  A    between atoms: _284  and  _285
REMARK  109  A    between atoms: _284  and  _287
REMARK  110  A    between atoms: _287  and  _288
REMARK  111  A    between atoms: _293  and  _295
REMARK  112  A    between atoms: _295  and  _296
REMARK  113  A    between atoms: _295  and  _298
REMARK  114  A    between atoms: _298  and  _299
REMARK  115  A    between atoms: _304  and  _305
REMARK  116  A    between atoms: _307  and  _309
REMARK  117  A    between atoms: _309  and  _310
REMARK  118  A    between atoms: _309  and  _312
REMARK  119  A    between atoms: _312  and  _313
REMARK  120  A    between atoms: _313  and  _314
REMARK  121  A    between atoms: _314  and  _315
REMARK  122  A    between atoms: _324  and  _326
REMARK  123  A    between atoms: _326  and  _327
REMARK  124  A    between atoms: _326  and  _329
REMARK  125  A    between atoms: _329  and  _330
REMARK  126  A    between atoms: _335  and  _336
REMARK  127  A    between atoms: _338  and  _340
REMARK  128  A    between atoms: _340  and  _341
REMARK  129  A    between atoms: _340  and  _343
REMARK  130  A    between atoms: _343  and  _344
REMARK  131  A    between atoms: _346  and  _348
REMARK  132  A    between atoms: _348  and  _349
REMARK  133  A    between atoms: _348  and  _351
REMARK  134  A    between atoms: _351  and  _352
REMARK                            x       y       z     vdW  Elec       q    Type
REMARK                         _______ _______ _______ _____ _____    ______ ____
ROOT
ATOM      1  CB  ASN A   1      39.609  12.103 -11.212  0.00  0.00    +0.110 C 
ENDROOT
BRANCH   1   2
ATOM      2  CG  ASN A   1      39.302  13.256 -12.184  0.00  0.00    +0.221 C 
ATOM      3  OD1 ASN A   1      40.159  14.138 -12.375  0.00  0.00    -0.275 OA
ATOM      4  ND2 ASN A   1      38.134  13.238 -12.818  0.00  0.00    -0.329 N 
ATOM      5 HD21 ASN A   1      37.449  12.480 -12.625  0.00  0.00    +0.145 HD
ATOM      6 HD22 ASN A   1      37.905  13.982 -13.507  0.00  0.00    +0.145 HD
ENDBRANCH   1   2
BRANCH   1   7
ATOM      7  CA  ASN A   1      38.812  10.824 -11.490  0.00  0.00    +0.142 C 
BRANCH   7   8
ATOM      8  N   ASN A   1      39.235   9.794 -10.534  0.00  0.00    -0.239 NA
ATOM      9  H   ASN A   1      40.198   9.823 -10.142  0.00  0.00    +0.142 HD
ENDBRANCH   7   8
BRANCH   7  10
ATOM     10  C   ASN A   1      38.964  10.349 -12.949  0.00  0.00    +0.225 C 
ATOM     11  O   ASN A   1      40.049  10.420 -13.515  0.00  0.00    -0.287 OA
ENDBRANCH   7  10
ENDBRANCH   1   7
TORSDOF 4
REMARK  Name = ../refined-set-2016/1tok/1tok_pocket.pdb
REMARK  134 active torsions:
REMARK  status: ('A' for Active; 'I' for Inactive)
REMARK    1  A    between atoms: _1  and  _3
REMARK    2  A    between atoms: _3  and  _4
REMARK    3  A    between atoms: _3  and  _6
REMARK    4  A    between atoms: _6  and  _7
REMARK    5  A    between atoms: _11  and  _12
REMARK    6  A    between atoms: _17  and  _19
REMARK    7  A    between atoms: _19  and  _20
REMARK    8  A    between atoms: _19  and  _22
REMARK    9  A    between atoms: _22  and  _23
REMARK   10  A    between atoms: _26  and  _28
REMARK   11  A    between atoms: _28  and  _29
REMARK   12  A    between atoms: _28  and  _31
REMARK   13  A    between atoms: _31  and  _32
REMARK   14  A    between atoms: _35  and  _37
REMARK   15  A    between atoms: _37  and  _38
REMARK   16  A    between atoms: _40  and  _42
REMARK   17  A    between atoms: _42  and  _43
REMARK   18  A    between atoms: _42  and  _45
REMARK   19  A    between atoms: _45  and  _46
REMARK   20  A    between atoms: _49  and  _51
REMARK   21  A    between atoms: _51  and  _52
REMARK   22  A    between atoms: _51  and  _54
REMARK   23  A    between atoms: _54  and  _55
REMARK   24  A    between atoms: _58  and  _60
REMARK   25  A    between atoms: _60  and  _61
REMARK   26  A    between atoms: _63  and  _65
REMARK   27  A    between atoms: _65  and  _66
REMARK   28  A    between atoms: _65  and  _68
REMARK   29  A    between atoms: _68  and  _69
REMARK   30  A    between atoms: _72  and  _74
REMARK   31  A    between atoms: _74  and  _75
REMARK   32  A    between atoms: _77  and  _79
REMARK   33  A    between atoms: _79  and  _80
REMARK   34  A    between atoms: _79  and  _82
REMARK   35  A    between atoms: _85  and  _87
REMARK   36  A    between atoms: _87  and  _88
REMARK   37  A    between atoms: _90  and  _92
REMARK   38  A    between atoms: _92  and  _93
REMARK   39  A    between atoms: _92  and  _95
REMARK   40  A    between atoms: _95  and  _96
REMARK   41  A    between atoms: _98  and  _100
REMARK   42  A    between atoms: _100  and  _101
REMARK   43  A    between atoms: _100  and  _103
REMARK   44  A    between atoms: _103  and  _104
REMARK   45  A    between atoms: _115  and  _116
REMARK   46  A    between atoms: _121  and  _123
REMARK   47  A    between atoms: _123  and  _124
REMARK   48  A    between atoms: _123  and  _126
REMARK   49  A    between atoms: _126  and  _127
REMARK   50  A    between atoms: _132  and  _134
REMARK   51  A    between atoms: _134  and  _135
REMARK   52  A    between atoms: _134  and  _137
REMARK   53  A    between atoms: _137  and  _138
REMARK   54  A    between atoms: _144  and  _145
REMARK   55  A    between atoms: _150  and  _152
REMARK   56  A    between atoms: _152  and  _153
REMARK   57  A    between atoms: _156  and  _158
REMARK   58  A    between atoms: _158  and  _159
REMARK   59  A    between atoms: _158  and  _161
REMARK   60  A    between atoms: _161  and  _162
REMARK   61  A    between atoms: _167  and  _168
REMARK   62  A    between atoms: _170  and  _172
REMARK   63  A    between atoms: _172  and  _173
REMARK   64  A    between atoms: _172  and  _175
REMARK   65  A    between atoms: _175  and  _176
REMARK   66  A    between atoms: _183  and  _184
REMARK   67  A    between atoms: _184  and  _200
REMARK   68  A    between atoms: _185  and  _187
REMARK   69  A    between atoms: _187  and  _188
REMARK   70  A    between atoms: _188  and  _189
REMARK   71  A    between atoms: _193  and  _195
REMARK   72  A    between atoms: _195  and  _196
REMARK   73  A    between atoms: _195  and  _203
REMARK   74  A    between atoms: _196  and  _197
REMARK   75  A    between atoms: _197  and  _198
REMARK   76  A    between atoms: _198  and  _199
REMARK   77  A    between atoms: _199  and  _200
REMARK   78  A    between atoms: _205  and  _207
REMARK   79  A    between atoms: _207  and  _208
REMARK   80  A    between atoms: _207  and  _210
REMARK   81  A    between atoms: _210  and  _211
REMARK   82  A    between atoms: _216  and  _217
REMARK   83  A    between atoms: _219  and  _221
REMARK   84  A    between atoms: _221  and  _222
REMARK   85  A    between atoms: _221  and  _224
REMARK   86  A    between atoms: _224  and  _225
REMARK   87  A    between atoms: _225  and  _226
REMARK   88  A    between atoms: _226  and  _227
REMARK   89  A    between atoms: _236  and  _238
REMARK   90  A    between atoms: _238  and  _239
REMARK   91  A    between atoms: _238  and  _241
REMARK   92  A    between atoms: _241  and  _242
REMARK   93  A    between atoms: _242  and  _243
REMARK   94  A    between atoms: _245  and  _247
REMARK   95  A    between atoms: _247  and  _248
REMARK   96  A    between atoms: _247  and  _250
REMARK   97  A    between atoms: _250  and  _251
REMARK   98  A    between atoms: _257  and  _259
REMARK   99  A    between atoms: _259  and  _260
REMARK  100  A    between atoms: _259  and  _262
REMARK  101  A    between atoms: _265  and  _267
REMARK  102  A    between atoms: _267  and  _268
REMARK  103  A    between atoms: _267  and  _270
REMARK  104  A    between atoms: _270  and  _271
REMARK  105  A    between atoms: _271  and  _272
REMARK  106  A    between atoms: _272  and  _273
REMARK  107  A    between atoms: _282  and  _284
REMARK  108  A    between atoms: _284  and  _285
REMARK  109  A    between atoms: _284  and  _287
REMARK  110  A    between atoms: _287  and  _288
REMARK  111  A    between atoms: _293  and  _295
REMARK  112  A    between atoms: _295  and  _296
REMARK  113  A    between atoms: _295  and  _298
REMARK  114  A    between atoms: _298  and  _299
REMARK  115  A    between atoms: _304  and  _305
REMARK  116  A    between atoms: _307  and  _309
REMARK  117  A    between atoms: _309  and  _310
REMARK  118  A    between atoms: _309  and  _312
REMARK  119  A    between atoms: _312  and  _313
REMARK  120  A    between atoms: _313  and  _314
REMARK  121  A    between atoms: _314  and  _315
REMARK  122  A    between atoms: _324  and  _326
REMARK  123  A    between atoms: _326  and  _327
REMARK  124  A    between atoms: _326  and  _329
REMARK  125  A    between atoms: _329  and  _330
REMARK  126  A    between atoms: _335  and  _336
REMARK  127  A    between atoms: _338  and  _340
REMARK  128  A    between atoms: _340  and  _341
REMARK  129  A    between atoms: _340  and  _343
REMARK  130  A    between atoms: _343  and  _344
REMARK  131  A    between atoms: _346  and  _348
REMARK  132  A    between atoms: _348  and  _349
REMARK  133  A    between atoms: _348  and  _351
REMARK  134  A    between atoms: _351  and  _352
REMARK                            x       y       z     vdW  Elec       q    Type
REMARK                         _______ _______ _______ _____ _____    ______ ____
ROOT
ATOM      1  CG  TYR A   1      40.441  23.366  -7.157  0.00  0.00    -0.020 A 
ATOM      2  CD2 TYR A   1      39.501  24.261  -6.638  0.00  0.00    -0.001 A 
ATOM      3  CE2 TYR A   1      38.125  24.012  -6.774  0.00  0.00    +0.036 A 
ATOM      4  CZ  TYR A   1      37.709  22.852  -7.435  0.00  0.00    +0.134 A 
ATOM      5  CE1 TYR A   1      38.640  21.963  -7.943  0.00  0.00    +0.036 A 
ATOM      6  CD1 TYR A   1      39.983  22.210  -7.781  0.00  0.00    -0.001 A 
ENDROOT
BRANCH   4   7
ATOM      7  OH  TYR A   1      36.357  22.580  -7.589  0.00  0.00    -0.506 OA
ATOM      8  HH  TYR A   1      35.826  23.306  -7.175  0.00  0.00    +0.292 HD
ENDBRANCH   4   7
BRANCH   1   9
ATOM      9  CB  TYR A   1      41.918  23.600  -6.968  0.00  0.00    +0.051 C 
BRANCH   9  10
ATOM     10  CA  TYR A   1      42.482  24.716  -7.832  0.00  0.00    +0.137 C 
BRANCH  10  11
ATOM     11  N   TYR A   1      42.516  24.272  -9.240  0.00  0.00    -0.239 NA
ATOM     12  H   TYR A   1      41.952  23.444  -9.521  0.00  0.00    +0.142 HD
ENDBRANCH  10  11
BRANCH  10  13
ATOM     13  C   TYR A   1      43.813  25.133  -7.227  0.00  0.00    +0.224 C 
ATOM     14  O   TYR A   1      44.826  24.432  -7.354  0.00  0.00    -0.287 OA
ENDBRANCH  10  13
ENDBRANCH   9  10
ENDBRANCH   1   9
TORSDOF 5
REMARK  Name = ../refined-set-2016/1tok/1tok_pocket.pdb
REMARK  134 active torsions:
REMARK  status: ('A' for Active; 'I' for Inactive)
REMARK    1  A    between atoms: _1  and  _3
REMARK    2  A    between atoms: _3  and  _4
REMARK    3  A    between atoms: _3  and  _6
REMARK    4  A    between atoms: _6  and  _7
REMARK    5  A    between atoms: _11  and  _12
REMARK    6  A    between atoms: _17  and  _19
REMARK    7  A    between atoms: _19  and  _20
REMARK    8  A    between atoms: _19  and  _22
REMARK    9  A    between atoms: _22  and  _23
REMARK   10  A    between atoms: _26  and  _28
REMARK   11  A    between atoms: _28  and  _29
REMARK   12  A    between atoms: _28  and  _31
REMARK   13  A    between atoms: _31  and  _32
REMARK   14  A    between atoms: _35  and  _37
REMARK   15  A    between atoms: _37  and  _38
REMARK   16  A    between atoms: _40  and  _42
REMARK   17  A    between atoms: _42  and  _43
REMARK   18  A    between atoms: _42  and  _45
REMARK   19  A    between atoms: _45  and  _46
REMARK   20  A    between atoms: _49  and  _51
REMARK   21  A    between atoms: _51  and  _52
REMARK   22  A    between atoms: _51  and  _54
REMARK   23  A    between atoms: _54  and  _55
REMARK   24  A    between atoms: _58  and  _60
REMARK   25  A    between atoms: _60  and  _61
REMARK   26  A    between atoms: _63  and  _65
REMARK   27  A    between atoms: _65  and  _66
REMARK   28  A    between atoms: _65  and  _68
REMARK   29  A    between atoms: _68  and  _69
REMARK   30  A    between atoms: _72  and  _74
REMARK   31  A    between atoms: _74  and  _75
REMARK   32  A    between atoms: _77  and  _79
REMARK   33  A    between atoms: _79  and  _80
REMARK   34  A    between atoms: _79  and  _82
REMARK   35  A    between atoms: _85  and  _87
REMARK   36  A    between atoms: _87  and  _88
REMARK   37  A    between atoms: _90  and  _92
REMARK   38  A    between atoms: _92  and  _93
REMARK   39  A    between atoms: _92  and  _95
REMARK   40  A    between atoms: _95  and  _96
REMARK   41  A    between atoms: _98  and  _100
REMARK   42  A    between atoms: _100  and  _101
REMARK   43  A    between atoms: _100  and  _103
REMARK   44  A    between atoms: _103  and  _104
REMARK   45  A    between atoms: _115  and  _116
REMARK   46  A    between atoms: _121  and  _123
REMARK   47  A    between atoms: _123  and  _124
REMARK   48  A    between atoms: _123  and  _126
REMARK   49  A    between atoms: _126  and  _127
REMARK   50  A    between atoms: _132  and  _134
REMARK   51  A    between atoms: _134  and  _135
REMARK   52  A    between atoms: _134  and  _137
REMARK   53  A    between atoms: _137  and  _138
REMARK   54  A    between atoms: _144  and  _145
REMARK   55  A    between atoms: _150  and  _152
REMARK   56  A    between atoms: _152  and  _153
REMARK   57  A    between atoms: _156  and  _158
REMARK   58  A    between atoms: _158  and  _159
REMARK   59  A    between atoms: _158  and  _161
REMARK   60  A    between atoms: _161  and  _162
REMARK   61  A    between atoms: _167  and  _168
REMARK   62  A    between atoms: _170  and  _172
REMARK   63  A    between atoms: _172  and  _173
REMARK   64  A    between atoms: _172  and  _175
REMARK   65  A    between atoms: _175  and  _176
REMARK   66  A    between atoms: _183  and  _184
REMARK   67  A    between atoms: _184  and  _200
REMARK   68  A    between atoms: _185  and  _187
REMARK   69  A    between atoms: _187  and  _188
REMARK   70  A    between atoms: _188  and  _189
REMARK   71  A    between atoms: _193  and  _195
REMARK   72  A    between atoms: _195  and  _196
REMARK   73  A    between atoms: _195  and  _203
REMARK   74  A    between atoms: _196  and  _197
REMARK   75  A    between atoms: _197  and  _198
REMARK   76  A    between atoms: _198  and  _199
REMARK   77  A    between atoms: _199  and  _200
REMARK   78  A    between atoms: _205  and  _207
REMARK   79  A    between atoms: _207  and  _208
REMARK   80  A    between atoms: _207  and  _210
REMARK   81  A    between atoms: _210  and  _211
REMARK   82  A    between atoms: _216  and  _217
REMARK   83  A    between atoms: _219  and  _221
REMARK   84  A    between atoms: _221  and  _222
REMARK   85  A    between atoms: _221  and  _224
REMARK   86  A    between atoms: _224  and  _225
REMARK   87  A    between atoms: _225  and  _226
REMARK   88  A    between atoms: _226  and  _227
REMARK   89  A    between atoms: _236  and  _238
REMARK   90  A    between atoms: _238  and  _239
REMARK   91  A    between atoms: _238  and  _241
REMARK   92  A    between atoms: _241  and  _242
REMARK   93  A    between atoms: _242  and  _243
REMARK   94  A    between atoms: _245  and  _247
REMARK   95  A    between atoms: _247  and  _248
REMARK   96  A    between atoms: _247  and  _250
REMARK   97  A    between atoms: _250  and  _251
REMARK   98  A    between atoms: _257  and  _259
REMARK   99  A    between atoms: _259  and  _260
REMARK  100  A    between atoms: _259  and  _262
REMARK  101  A    between atoms: _265  and  _267
REMARK  102  A    between atoms: _267  and  _268
REMARK  103  A    between atoms: _267  and  _270
REMARK  104  A    between atoms: _270  and  _271
REMARK  105  A    between atoms: _271  and  _272
REMARK  106  A    between atoms: _272  and  _273
REMARK  107  A    between atoms: _282  and  _284
REMARK  108  A    between atoms: _284  and  _285
REMARK  109  A    between atoms: _284  and  _287
REMARK  110  A    between atoms: _287  and  _288
REMARK  111  A    between atoms: _293  and  _295
REMARK  112  A    between atoms: _295  and  _296
REMARK  113  A    between atoms: _295  and  _298
REMARK  114  A    between atoms: _298  and  _299
REMARK  115  A    between atoms: _304  and  _305
REMARK  116  A    between atoms: _307  and  _309
REMARK  117  A    between atoms: _309  and  _310
REMARK  118  A    between atoms: _309  and  _312
REMARK  119  A    between atoms: _312  and  _313
REMARK  120  A    between atoms: _313  and  _314
REMARK  121  A    between atoms: _314  and  _315
REMARK  122  A    between atoms: _324  and  _326
REMARK  123  A    between atoms: _326  and  _327
REMARK  124  A    between atoms: _326  and  _329
REMARK  125  A    between atoms: _329  and  _330
REMARK  126  A    between atoms: _335  and  _336
REMARK  127  A    between atoms: _338  and  _340
REMARK  128  A    between atoms: _340  and  _341
REMARK  129  A    between atoms: _340  and  _343
REMARK  130  A    between atoms: _343  and  _344
REMARK  131  A    between atoms: _346  and  _348
REMARK  132  A    between atoms: _348  and  _349
REMARK  133  A    between atoms: _348  and  _351
REMARK  134  A    between atoms: _351  and  _352
REMARK                            x       y       z     vdW  Elec       q    Type
REMARK                         _______ _______ _______ _____ _____    ______ ____
ROOT
ATOM      1  NE  ARG A   1      37.897  20.119   1.501  0.00  0.00    -0.265 N 
ATOM      2  HE  ARG A   1      38.136  19.280   2.068  0.00  0.00    +0.259 HD
ATOM      3  CZ  ARG A   1      37.524  19.934   0.242  0.00  0.00    +0.342 C 
ATOM      4  NH2 ARG A   1      37.506  18.689  -0.260  0.00  0.00    -0.292 N 
ATOM      5 HH21 ARG A   1      37.783  17.884   0.337  0.00  0.00    +0.255 HD
ATOM      6 HH22 ARG A   1      37.216  18.530  -1.246  0.00  0.00    +0.255 HD
ATOM      7  NH1 ARG A   1      37.111  20.971  -0.499  0.00  0.00    -0.292 N 
ATOM      8 HH11 ARG A   1      37.082  21.926  -0.087  0.00  0.00    +0.255 HD
ATOM      9 HH12 ARG A   1      36.819  20.821  -1.486  0.00  0.00    +0.255 HD
ENDROOT
BRANCH   1  10
ATOM     10  CD  ARG A   1      37.994  21.440   2.146  0.00  0.00    +0.174 C 
BRANCH  10  11
ATOM     11  CG  ARG A   1      38.216  21.303   3.658  0.00  0.00    +0.045 C 
BRANCH  11  12
ATOM     12  CB  ARG A   1      38.855  22.540   4.309  0.00  0.00    +0.029 C 
BRANCH  12  13
ATOM     13  CA  ARG A   1      38.152  23.870   4.013  0.00  0.00    +0.133 C 
BRANCH  13  14
ATOM     14  N   ARG A   1      38.797  24.957   4.769  0.00  0.00    -0.239 NA
ATOM     15  H   ARG A   1      39.629  24.742   5.354  0.00  0.00    +0.142 HD
ENDBRANCH  13  14
BRANCH  13  16
ATOM     16  C   ARG A   1      36.652  23.780   4.287  0.00  0.00    +0.224 C 
ATOM     17  O   ARG A   1      35.870  23.549   3.367  0.00  0.00    -0.287 OA
ENDBRANCH  13  16
ENDBRANCH  12  13
ENDBRANCH  11  12
ENDBRANCH  10  11
ENDBRANCH   1  10
TORSDOF 6
REMARK  Name = ../refined-set-2016/1tok/1tok_pocket.pdb
REMARK  134 active torsions:
REMARK  status: ('A' for Active; 'I' for Inactive)
REMARK    1  A    between atoms: _1  and  _3
REMARK    2  A    between atoms: _3  and  _4
REMARK    3  A    between atoms: _3  and  _6
REMARK    4  A    between atoms: _6  and  _7
REMARK    5  A    between atoms: _11  and  _12
REMARK    6  A    between atoms: _17  and  _19
REMARK    7  A    between atoms: _19  and  _20
REMARK    8  A    between atoms: _19  and  _22
REMARK    9  A    between atoms: _22  and  _23
REMARK   10  A    between atoms: _26  and  _28
REMARK   11  A    between atoms: _28  and  _29
REMARK   12  A    between atoms: _28  and  _31
REMARK   13  A    between atoms: _31  and  _32
REMARK   14  A    between atoms: _35  and  _37
REMARK   15  A    between atoms: _37  and  _38
REMARK   16  A    between atoms: _40  and  _42
REMARK   17  A    between atoms: _42  and  _43
REMARK   18  A    between atoms: _42  and  _45
REMARK   19  A    between atoms: _45  and  _46
REMARK   20  A    between atoms: _49  and  _51
REMARK   21  A    between atoms: _51  and  _52
REMARK   22  A    between atoms: _51  and  _54
REMARK   23  A    between atoms: _54  and  _55
REMARK   24  A    between atoms: _58  and  _60
REMARK   25  A    between atoms: _60  and  _61
REMARK   26  A    between atoms: _63  and  _65
REMARK   27  A    between atoms: _65  and  _66
REMARK   28  A    between atoms: _65  and  _68
REMARK   29  A    between atoms: _68  and  _69
REMARK   30  A    between atoms: _72  and  _74
REMARK   31  A    between atoms: _74  and  _75
REMARK   32  A    between atoms: _77  and  _79
REMARK   33  A    between atoms: _79  and  _80
REMARK   34  A    between atoms: _79  and  _82
REMARK   35  A    between atoms: _85  and  _87
REMARK   36  A    between atoms: _87  and  _88
REMARK   37  A    between atoms: _90  and  _92
REMARK   38  A    between atoms: _92  and  _93
REMARK   39  A    between atoms: _92  and  _95
REMARK   40  A    between atoms: _95  and  _96
REMARK   41  A    between atoms: _98  and  _100
REMARK   42  A    between atoms: _100  and  _101
REMARK   43  A    between atoms: _100  and  _103
REMARK   44  A    between atoms: _103  and  _104
REMARK   45  A    between atoms: _115  and  _116
REMARK   46  A    between atoms: _121  and  _123
REMARK   47  A    between atoms: _123  and  _124
REMARK   48  A    between atoms: _123  and  _126
REMARK   49  A    between atoms: _126  and  _127
REMARK   50  A    between atoms: _132  and  _134
REMARK   51  A    between atoms: _134  and  _135
REMARK   52  A    between atoms: _134  and  _137
REMARK   53  A    between atoms: _137  and  _138
REMARK   54  A    between atoms: _144  and  _145
REMARK   55  A    between atoms: _150  and  _152
REMARK   56  A    between atoms: _152  and  _153
REMARK   57  A    between atoms: _156  and  _158
REMARK   58  A    between atoms: _158  and  _159
REMARK   59  A    between atoms: _158  and  _161
REMARK   60  A    between atoms: _161  and  _162
REMARK   61  A    between atoms: _167  and  _168
REMARK   62  A    between atoms: _170  and  _172
REMARK   63  A    between atoms: _172  and  _173
REMARK   64  A    between atoms: _172  and  _175
REMARK   65  A    between atoms: _175  and  _176
REMARK   66  A    between atoms: _183  and  _184
REMARK   67  A    between atoms: _184  and  _200
REMARK   68  A    between atoms: _185  and  _187
REMARK   69  A    between atoms: _187  and  _188
REMARK   70  A    between atoms: _188  and  _189
REMARK   71  A    between atoms: _193  and  _195
REMARK   72  A    between atoms: _195  and  _196
REMARK   73  A    between atoms: _195  and  _203
REMARK   74  A    between atoms: _196  and  _197
REMARK   75  A    between atoms: _197  and  _198
REMARK   76  A    between atoms: _198  and  _199
REMARK   77  A    between atoms: _199  and  _200
REMARK   78  A    between atoms: _205  and  _207
REMARK   79  A    between atoms: _207  and  _208
REMARK   80  A    between atoms: _207  and  _210
REMARK   81  A    between atoms: _210  and  _211
REMARK   82  A    between atoms: _216  and  _217
REMARK   83  A    between atoms: _219  and  _221
REMARK   84  A    between atoms: _221  and  _222
REMARK   85  A    between atoms: _221  and  _224
REMARK   86  A    between atoms: _224  and  _225
REMARK   87  A    between atoms: _225  and  _226
REMARK   88  A    between atoms: _226  and  _227
REMARK   89  A    between atoms: _236  and  _238
REMARK   90  A    between atoms: _238  and  _239
REMARK   91  A    between atoms: _238  and  _241
REMARK   92  A    between atoms: _241  and  _242
REMARK   93  A    between atoms: _242  and  _243
REMARK   94  A    between atoms: _245  and  _247
REMARK   95  A    between atoms: _247  and  _248
REMARK   96  A    between atoms: _247  and  _250
REMARK   97  A    between atoms: _250  and  _251
REMARK   98  A    between atoms: _257  and  _259
REMARK   99  A    between atoms: _259  and  _260
REMARK  100  A    between atoms: _259  and  _262
REMARK  101  A    between atoms: _265  and  _267
REMARK  102  A    between atoms: _267  and  _268
REMARK  103  A    between atoms: _267  and  _270
REMARK  104  A    between atoms: _270  and  _271
REMARK  105  A    between atoms: _271  and  _272
REMARK  106  A    between atoms: _272  and  _273
REMARK  107  A    between atoms: _282  and  _284
REMARK  108  A    between atoms: _284  and  _285
REMARK  109  A    between atoms: _284  and  _287
REMARK  110  A    between atoms: _287  and  _288
REMARK  111  A    between atoms: _293  and  _295
REMARK  112  A    between atoms: _295  and  _296
REMARK  113  A    between atoms: _295  and  _298
REMARK  114  A    between atoms: _298  and  _299
REMARK  115  A    between atoms: _304  and  _305
REMARK  116  A    between atoms: _307  and  _309
REMARK  117  A    between atoms: _309  and  _310
REMARK  118  A    between atoms: _309  and  _312
REMARK  119  A    between atoms: _312  and  _313
REMARK  120  A    between atoms: _313  and  _314
REMARK  121  A    between atoms: _314  and  _315
REMARK  122  A    between atoms: _324  and  _326
REMARK  123  A    between atoms: _326  and  _327
REMARK  124  A    between atoms: _326  and  _329
REMARK  125  A    between atoms: _329  and  _330
REMARK  126  A    between atoms: _335  and  _336
REMARK  127  A    between atoms: _338  and  _340
REMARK  128  A    between atoms: _340  and  _341
REMARK  129  A    between atoms: _340  and  _343
REMARK  130  A    between atoms: _343  and  _344
REMARK  131  A    between atoms: _346  and  _348
REMARK  132  A    between atoms: _348  and  _349
REMARK  133  A    between atoms: _348  and  _351
REMARK  134  A    between atoms: _351  and  _352
REMARK                            x       y       z     vdW  Elec       q    Type
REMARK                         _______ _______ _______ _____ _____    ______ ____
ROOT
ATOM      1  C   TYR A   1      36.040  27.352   0.276  0.00  0.00    +0.239 C 
ATOM      2  N   SER A   2      36.699  26.454   1.010  0.00  0.00    -0.295 N 
ATOM      3  H   SER A   2      36.525  26.471   2.035  0.00  0.00    +0.150 HD
ATOM      4  O   TYR A   1      36.211  27.520  -0.934  0.00  0.00    -0.274 OA
ENDROOT
BRANCH   1   5
ATOM      5  CA  TYR A   1      35.000  28.204   1.057  0.00  0.00    +0.149 C 
BRANCH   5   6
ATOM      6  N   TYR A   1      35.090  27.960   2.513  0.00  0.00    -0.238 NA
ATOM      7  H   TYR A   1      35.972  28.178   3.019  0.00  0.00    +0.142 HD
ENDBRANCH   5   6
BRANCH   5   8
ATOM      8  CB  TYR A   1      35.151  29.726   0.728  0.00  0.00    +0.053 C 
BRANCH   8   9
ATOM      9  CG  TYR A   1      36.431  30.273   1.302  0.00  0.00    -0.020 A 
ATOM     10  CD2 TYR A   1      36.458  30.845   2.581  0.00  0.00    -0.001 A 
ATOM     11  CE2 TYR A   1      37.645  31.274   3.146  0.00  0.00    +0.036 A 
ATOM     12  CZ  TYR A   1      38.835  31.098   2.455  0.00  0.00    +0.134 A 
ATOM     13  CE1 TYR A   1      38.842  30.538   1.183  0.00  0.00    +0.036 A 
ATOM     14  CD1 TYR A   1      37.647  30.092   0.626  0.00  0.00    -0.001 A 
BRANCH  12  15
ATOM     15  OH  TYR A   1      40.000  31.494   3.054  0.00  0.00    -0.506 OA
ATOM     16  HH  TYR A   1      40.761  31.308   2.448  0.00  0.00    +0.292 HD
ENDBRANCH  12  15
ENDBRANCH   8   9
ENDBRANCH   5   8
ENDBRANCH   1   5
BRANCH   2  17
ATOM     17  CA  SER A   2      37.648  25.440   0.518  0.00  0.00    +0.178 C 
BRANCH  17  18
ATOM     18  C   SER A   2      39.014  25.968   0.053  0.00  0.00    +0.243 C 
ATOM     19  O   SER A   2      40.051  25.535   0.564  0.00  0.00    -0.273 OA
ATOM     20  N   SER A   3      39.021  26.935  -0.862  0.00  0.00    -0.296 N 
ATOM     21  H   SER A   3      38.118  27.286  -1.240  0.00  0.00    +0.150 HD
BRANCH  20  22
ATOM     22  CA  SER A   3      40.285  27.518  -1.349  0.00  0.00    +0.166 C 
BRANCH  22  23
ATOM     23  CB  SER A   3      39.977  28.898  -1.905  0.00  0.00    +0.229 C 
ATOM     24  OG  SER A   3      38.831  29.181  -2.250  0.00  0.00    -0.286 OA
ENDBRANCH  22  23
BRANCH  22  25
ATOM     25  C   SER A   3      40.956  26.635  -2.426  0.00  0.00    +0.165 C 
BRANCH  25  26
ATOM     26  O   SER A   3      40.182  26.557  -3.614  0.00  0.00    -0.380 OA
ATOM     27  H   SER A   3      39.296  26.168  -3.404  0.00  0.00    +0.211 HD
ENDBRANCH  25  26
ENDBRANCH  22  25
ENDBRANCH  20  22
ENDBRANCH  17  18
BRANCH  17  28
ATOM     28  CB  SER A   2      36.980  24.460  -0.475  0.00  0.00    +0.166 C 
BRANCH  28  29
ATOM     29  OG  SER A   2      37.935  23.495  -0.916  0.00  0.00    -0.380 OA
ATOM     30  H   SER A   2      38.686  23.957  -1.366  0.00  0.00    +0.211 HD
ENDBRANCH  28  29
ENDBRANCH  17  28
ENDBRANCH   2  17
TORSDOF 13
REMARK  Name = ../refined-set-2016/1tok/1tok_pocket.pdb
REMARK  134 active torsions:
REMARK  status: ('A' for Active; 'I' for Inactive)
REMARK    1  A    between atoms: _1  and  _3
REMARK    2  A    between atoms: _3  and  _4
REMARK    3  A    between atoms: _3  and  _6
REMARK    4  A    between atoms: _6  and  _7
REMARK    5  A    between atoms: _11  and  _12
REMARK    6  A    between atoms: _17  and  _19
REMARK    7  A    between atoms: _19  and  _20
REMARK    8  A    between atoms: _19  and  _22
REMARK    9  A    between atoms: _22  and  _23
REMARK   10  A    between atoms: _26  and  _28
REMARK   11  A    between atoms: _28  and  _29
REMARK   12  A    between atoms: _28  and  _31
REMARK   13  A    between atoms: _31  and  _32
REMARK   14  A    between atoms: _35  and  _37
REMARK   15  A    between atoms: _37  and  _38
REMARK   16  A    between atoms: _40  and  _42
REMARK   17  A    between atoms: _42  and  _43
REMARK   18  A    between atoms: _42  and  _45
REMARK   19  A    between atoms: _45  and  _46
REMARK   20  A    between atoms: _49  and  _51
REMARK   21  A    between atoms: _51  and  _52
REMARK   22  A    between atoms: _51  and  _54
REMARK   23  A    between atoms: _54  and  _55
REMARK   24  A    between atoms: _58  and  _60
REMARK   25  A    between atoms: _60  and  _61
REMARK   26  A    between atoms: _63  and  _65
REMARK   27  A    between atoms: _65  and  _66
REMARK   28  A    between atoms: _65  and  _68
REMARK   29  A    between atoms: _68  and  _69
REMARK   30  A    between atoms: _72  and  _74
REMARK   31  A    between atoms: _74  and  _75
REMARK   32  A    between atoms: _77  and  _79
REMARK   33  A    between atoms: _79  and  _80
REMARK   34  A    between atoms: _79  and  _82
REMARK   35  A    between atoms: _85  and  _87
REMARK   36  A    between atoms: _87  and  _88
REMARK   37  A    between atoms: _90  and  _92
REMARK   38  A    between atoms: _92  and  _93
REMARK   39  A    between atoms: _92  and  _95
REMARK   40  A    between atoms: _95  and  _96
REMARK   41  A    between atoms: _98  and  _100
REMARK   42  A    between atoms: _100  and  _101
REMARK   43  A    between atoms: _100  and  _103
REMARK   44  A    between atoms: _103  and  _104
REMARK   45  A    between atoms: _115  and  _116
REMARK   46  A    between atoms: _121  and  _123
REMARK   47  A    between atoms: _123  and  _124
REMARK   48  A    between atoms: _123  and  _126
REMARK   49  A    between atoms: _126  and  _127
REMARK   50  A    between atoms: _132  and  _134
REMARK   51  A    between atoms: _134  and  _135
REMARK   52  A    between atoms: _134  and  _137
REMARK   53  A    between atoms: _137  and  _138
REMARK   54  A    between atoms: _144  and  _145
REMARK   55  A    between atoms: _150  and  _152
REMARK   56  A    between atoms: _152  and  _153
REMARK   57  A    between atoms: _156  and  _158
REMARK   58  A    between atoms: _158  and  _159
REMARK   59  A    between atoms: _158  and  _161
REMARK   60  A    between atoms: _161  and  _162
REMARK   61  A    between atoms: _167  and  _168
REMARK   62  A    between atoms: _170  and  _172
REMARK   63  A    between atoms: _172  and  _173
REMARK   64  A    between atoms: _172  and  _175
REMARK   65  A    between atoms: _175  and  _176
REMARK   66  A    between atoms: _183  and  _184
REMARK   67  A    between atoms: _184  and  _200
REMARK   68  A    between atoms: _185  and  _187
REMARK   69  A    between atoms: _187  and  _188
REMARK   70  A    between atoms: _188  and  _189
REMARK   71  A    between atoms: _193  and  _195
REMARK   72  A    between atoms: _195  and  _196
REMARK   73  A    between atoms: _195  and  _203
REMARK   74  A    between atoms: _196  and  _197
REMARK   75  A    between atoms: _197  and  _198
REMARK   76  A    between atoms: _198  and  _199
REMARK   77  A    between atoms: _199  and  _200
REMARK   78  A    between atoms: _205  and  _207
REMARK   79  A    between atoms: _207  and  _208
REMARK   80  A    between atoms: _207  and  _210
REMARK   81  A    between atoms: _210  and  _211
REMARK   82  A    between atoms: _216  and  _217
REMARK   83  A    between atoms: _219  and  _221
REMARK   84  A    between atoms: _221  and  _222
REMARK   85  A    between atoms: _221  and  _224
REMARK   86  A    between atoms: _224  and  _225
REMARK   87  A    between atoms: _225  and  _226
REMARK   88  A    between atoms: _226  and  _227
REMARK   89  A    between atoms: _236  and  _238
REMARK   90  A    between atoms: _238  and  _239
REMARK   91  A    between atoms: _238  and  _241
REMARK   92  A    between atoms: _241  and  _242
REMARK   93  A    between atoms: _242  and  _243
REMARK   94  A    between atoms: _245  and  _247
REMARK   95  A    between atoms: _247  and  _248
REMARK   96  A    between atoms: _247  and  _250
REMARK   97  A    between atoms: _250  and  _251
REMARK   98  A    between atoms: _257  and  _259
REMARK   99  A    between atoms: _259  and  _260
REMARK  100  A    between atoms: _259  and  _262
REMARK  101  A    between atoms: _265  and  _267
REMARK  102  A    between atoms: _267  and  _268
REMARK  103  A    between atoms: _267  and  _270
REMARK  104  A    between atoms: _270  and  _271
REMARK  105  A    between atoms: _271  and  _272
REMARK  106  A    between atoms: _272  and  _273
REMARK  107  A    between atoms: _282  and  _284
REMARK  108  A    between atoms: _284  and  _285
REMARK  109  A    between atoms: _284  and  _287
REMARK  110  A    between atoms: _287  and  _288
REMARK  111  A    between atoms: _293  and  _295
REMARK  112  A    between atoms: _295  and  _296
REMARK  113  A    between atoms: _295  and  _298
REMARK  114  A    between atoms: _298  and  _299
REMARK  115  A    between atoms: _304  and  _305
REMARK  116  A    between atoms: _307  and  _309
REMARK  117  A    between atoms: _309  and  _310
REMARK  118  A    between atoms: _309  and  _312
REMARK  119  A    between atoms: _312  and  _313
REMARK  120  A    between atoms: _313  and  _314
REMARK  121  A    between atoms: _314  and  _315
REMARK  122  A    between atoms: _324  and  _326
REMARK  123  A    between atoms: _326  and  _327
REMARK  124  A    between atoms: _326  and  _329
REMARK  125  A    between atoms: _329  and  _330
REMARK  126  A    between atoms: _335  and  _336
REMARK  127  A    between atoms: _338  and  _340
REMARK  128  A    between atoms: _340  and  _341
REMARK  129  A    between atoms: _340  and  _343
REMARK  130  A    between atoms: _343  and  _344
REMARK  131  A    between atoms: _346  and  _348
REMARK  132  A    between atoms: _348  and  _349
REMARK  133  A    between atoms: _348  and  _351
REMARK  134  A    between atoms: _351  and  _352
REMARK                            x       y       z     vdW  Elec       q    Type
REMARK                         _______ _______ _______ _____ _____    ______ ____
ROOT
ATOM      1  O   HOH     1      35.237  10.058  -1.764  0.00  0.00    +0.000 OA
ENDROOT
TORSDOF 0
REMARK  Name = ../refined-set-2016/1tok/1tok_pocket.pdb
REMARK  134 active torsions:
REMARK  status: ('A' for Active; 'I' for Inactive)
REMARK    1  A    between atoms: _1  and  _3
REMARK    2  A    between atoms: _3  and  _4
REMARK    3  A    between atoms: _3  and  _6
REMARK    4  A    between atoms: _6  and  _7
REMARK    5  A    between atoms: _11  and  _12
REMARK    6  A    between atoms: _17  and  _19
REMARK    7  A    between atoms: _19  and  _20
REMARK    8  A    between atoms: _19  and  _22
REMARK    9  A    between atoms: _22  and  _23
REMARK   10  A    between atoms: _26  and  _28
REMARK   11  A    between atoms: _28  and  _29
REMARK   12  A    between atoms: _28  and  _31
REMARK   13  A    between atoms: _31  and  _32
REMARK   14  A    between atoms: _35  and  _37
REMARK   15  A    between atoms: _37  and  _38
REMARK   16  A    between atoms: _40  and  _42
REMARK   17  A    between atoms: _42  and  _43
REMARK   18  A    between atoms: _42  and  _45
REMARK   19  A    between atoms: _45  and  _46
REMARK   20  A    between atoms: _49  and  _51
REMARK   21  A    between atoms: _51  and  _52
REMARK   22  A    between atoms: _51  and  _54
REMARK   23  A    between atoms: _54  and  _55
REMARK   24  A    between atoms: _58  and  _60
REMARK   25  A    between atoms: _60  and  _61
REMARK   26  A    between atoms: _63  and  _65
REMARK   27  A    between atoms: _65  and  _66
REMARK   28  A    between atoms: _65  and  _68
REMARK   29  A    between atoms: _68  and  _69
REMARK   30  A    between atoms: _72  and  _74
REMARK   31  A    between atoms: _74  and  _75
REMARK   32  A    between atoms: _77  and  _79
REMARK   33  A    between atoms: _79  and  _80
REMARK   34  A    between atoms: _79  and  _82
REMARK   35  A    between atoms: _85  and  _87
REMARK   36  A    between atoms: _87  and  _88
REMARK   37  A    between atoms: _90  and  _92
REMARK   38  A    between atoms: _92  and  _93
REMARK   39  A    between atoms: _92  and  _95
REMARK   40  A    between atoms: _95  and  _96
REMARK   41  A    between atoms: _98  and  _100
REMARK   42  A    between atoms: _100  and  _101
REMARK   43  A    between atoms: _100  and  _103
REMARK   44  A    between atoms: _103  and  _104
REMARK   45  A    between atoms: _115  and  _116
REMARK   46  A    between atoms: _121  and  _123
REMARK   47  A    between atoms: _123  and  _124
REMARK   48  A    between atoms: _123  and  _126
REMARK   49  A    between atoms: _126  and  _127
REMARK   50  A    between atoms: _132  and  _134
REMARK   51  A    between atoms: _134  and  _135
REMARK   52  A    between atoms: _134  and  _137
REMARK   53  A    between atoms: _137  and  _138
REMARK   54  A    between atoms: _144  and  _145
REMARK   55  A    between atoms: _150  and  _152
REMARK   56  A    between atoms: _152  and  _153
REMARK   57  A    between atoms: _156  and  _158
REMARK   58  A    between atoms: _158  and  _159
REMARK   59  A    between atoms: _158  and  _161
REMARK   60  A    between atoms: _161  and  _162
REMARK   61  A    between atoms: _167  and  _168
REMARK   62  A    between atoms: _170  and  _172
REMARK   63  A    between atoms: _172  and  _173
REMARK   64  A    between atoms: _172  and  _175
REMARK   65  A    between atoms: _175  and  _176
REMARK   66  A    between atoms: _183  and  _184
REMARK   67  A    between atoms: _184  and  _200
REMARK   68  A    between atoms: _185  and  _187
REMARK   69  A    between atoms: _187  and  _188
REMARK   70  A    between atoms: _188  and  _189
REMARK   71  A    between atoms: _193  and  _195
REMARK   72  A    between atoms: _195  and  _196
REMARK   73  A    between atoms: _195  and  _203
REMARK   74  A    between atoms: _196  and  _197
REMARK   75  A    between atoms: _197  and  _198
REMARK   76  A    between atoms: _198  and  _199
REMARK   77  A    between atoms: _199  and  _200
REMARK   78  A    between atoms: _205  and  _207
REMARK   79  A    between atoms: _207  and  _208
REMARK   80  A    between atoms: _207  and  _210
REMARK   81  A    between atoms: _210  and  _211
REMARK   82  A    between atoms: _216  and  _217
REMARK   83  A    between atoms: _219  and  _221
REMARK   84  A    between atoms: _221  and  _222
REMARK   85  A    between atoms: _221  and  _224
REMARK   86  A    between atoms: _224  and  _225
REMARK   87  A    between atoms: _225  and  _226
REMARK   88  A    between atoms: _226  and  _227
REMARK   89  A    between atoms: _236  and  _238
REMARK   90  A    between atoms: _238  and  _239
REMARK   91  A    between atoms: _238  and  _241
REMARK   92  A    between atoms: _241  and  _242
REMARK   93  A    between atoms: _242  and  _243
REMARK   94  A    between atoms: _245  and  _247
REMARK   95  A    between atoms: _247  and  _248
REMARK   96  A    between atoms: _247  and  _250
REMARK   97  A    between atoms: _250  and  _251
REMARK   98  A    between atoms: _257  and  _259
REMARK   99  A    between atoms: _259  and  _260
REMARK  100  A    between atoms: _259  and  _262
REMARK  101  A    between atoms: _265  and  _267
REMARK  102  A    between atoms: _267  and  _268
REMARK  103  A    between atoms: _267  and  _270
REMARK  104  A    between atoms: _270  and  _271
REMARK  105  A    between atoms: _271  and  _272
REMARK  106  A    between atoms: _272  and  _273
REMARK  107  A    between atoms: _282  and  _284
REMARK  108  A    between atoms: _284  and  _285
REMARK  109  A    between atoms: _284  and  _287
REMARK  110  A    between atoms: _287  and  _288
REMARK  111  A    between atoms: _293  and  _295
REMARK  112  A    between atoms: _295  and  _296
REMARK  113  A    between atoms: _295  and  _298
REMARK  114  A    between atoms: _298  and  _299
REMARK  115  A    between atoms: _304  and  _305
REMARK  116  A    between atoms: _307  and  _309
REMARK  117  A    between atoms: _309  and  _310
REMARK  118  A    between atoms: _309  and  _312
REMARK  119  A    between atoms: _312  and  _313
REMARK  120  A    between atoms: _313  and  _314
REMARK  121  A    between atoms: _314  and  _315
REMARK  122  A    between atoms: _324  and  _326
REMARK  123  A    between atoms: _326  and  _327
REMARK  124  A    between atoms: _326  and  _329
REMARK  125  A    between atoms: _329  and  _330
REMARK  126  A    between atoms: _335  and  _336
REMARK  127  A    between atoms: _338  and  _340
REMARK  128  A    between atoms: _340  and  _341
REMARK  129  A    between atoms: _340  and  _343
REMARK  130  A    between atoms: _343  and  _344
REMARK  131  A    between atoms: _346  and  _348
REMARK  132  A    between atoms: _348  and  _349
REMARK  133  A    between atoms: _348  and  _351
REMARK  134  A    between atoms: _351  and  _352
REMARK                            x       y       z     vdW  Elec       q    Type
REMARK                         _______ _______ _______ _____ _____    ______ ____
ROOT
ATOM      1  O   HOH     1      36.481  23.188  -3.714  0.00  0.00    +0.000 OA
ENDROOT
TORSDOF 0
REMARK  Name = ../refined-set-2016/1tok/1tok_pocket.pdb
REMARK  134 active torsions:
REMARK  status: ('A' for Active; 'I' for Inactive)
REMARK    1  A    between atoms: _1  and  _3
REMARK    2  A    between atoms: _3  and  _4
REMARK    3  A    between atoms: _3  and  _6
REMARK    4  A    between atoms: _6  and  _7
REMARK    5  A    between atoms: _11  and  _12
REMARK    6  A    between atoms: _17  and  _19
REMARK    7  A    between atoms: _19  and  _20
REMARK    8  A    between atoms: _19  and  _22
REMARK    9  A    between atoms: _22  and  _23
REMARK   10  A    between atoms: _26  and  _28
REMARK   11  A    between atoms: _28  and  _29
REMARK   12  A    between atoms: _28  and  _31
REMARK   13  A    between atoms: _31  and  _32
REMARK   14  A    between atoms: _35  and  _37
REMARK   15  A    between atoms: _37  and  _38
REMARK   16  A    between atoms: _40  and  _42
REMARK   17  A    between atoms: _42  and  _43
REMARK   18  A    between atoms: _42  and  _45
REMARK   19  A    between atoms: _45  and  _46
REMARK   20  A    between atoms: _49  and  _51
REMARK   21  A    between atoms: _51  and  _52
REMARK   22  A    between atoms: _51  and  _54
REMARK   23  A    between atoms: _54  and  _55
REMARK   24  A    between atoms: _58  and  _60
REMARK   25  A    between atoms: _60  and  _61
REMARK   26  A    between atoms: _63  and  _65
REMARK   27  A    between atoms: _65  and  _66
REMARK   28  A    between atoms: _65  and  _68
REMARK   29  A    between atoms: _68  and  _69
REMARK   30  A    between atoms: _72  and  _74
REMARK   31  A    between atoms: _74  and  _75
REMARK   32  A    between atoms: _77  and  _79
REMARK   33  A    between atoms: _79  and  _80
REMARK   34  A    between atoms: _79  and  _82
REMARK   35  A    between atoms: _85  and  _87
REMARK   36  A    between atoms: _87  and  _88
REMARK   37  A    between atoms: _90  and  _92
REMARK   38  A    between atoms: _92  and  _93
REMARK   39  A    between atoms: _92  and  _95
REMARK   40  A    between atoms: _95  and  _96
REMARK   41  A    between atoms: _98  and  _100
REMARK   42  A    between atoms: _100  and  _101
REMARK   43  A    between atoms: _100  and  _103
REMARK   44  A    between atoms: _103  and  _104
REMARK   45  A    between atoms: _115  and  _116
REMARK   46  A    between atoms: _121  and  _123
REMARK   47  A    between atoms: _123  and  _124
REMARK   48  A    between atoms: _123  and  _126
REMARK   49  A    between atoms: _126  and  _127
REMARK   50  A    between atoms: _132  and  _134
REMARK   51  A    between atoms: _134  and  _135
REMARK   52  A    between atoms: _134  and  _137
REMARK   53  A    between atoms: _137  and  _138
REMARK   54  A    between atoms: _144  and  _145
REMARK   55  A    between atoms: _150  and  _152
REMARK   56  A    between atoms: _152  and  _153
REMARK   57  A    between atoms: _156  and  _158
REMARK   58  A    between atoms: _158  and  _159
REMARK   59  A    between atoms: _158  and  _161
REMARK   60  A    between atoms: _161  and  _162
REMARK   61  A    between atoms: _167  and  _168
REMARK   62  A    between atoms: _170  and  _172
REMARK   63  A    between atoms: _172  and  _173
REMARK   64  A    between atoms: _172  and  _175
REMARK   65  A    between atoms: _175  and  _176
REMARK   66  A    between atoms: _183  and  _184
REMARK   67  A    between atoms: _184  and  _200
REMARK   68  A    between atoms: _185  and  _187
REMARK   69  A    between atoms: _187  and  _188
REMARK   70  A    between atoms: _188  and  _189
REMARK   71  A    between atoms: _193  and  _195
REMARK   72  A    between atoms: _195  and  _196
REMARK   73  A    between atoms: _195  and  _203
REMARK   74  A    between atoms: _196  and  _197
REMARK   75  A    between atoms: _197  and  _198
REMARK   76  A    between atoms: _198  and  _199
REMARK   77  A    between atoms: _199  and  _200
REMARK   78  A    between atoms: _205  and  _207
REMARK   79  A    between atoms: _207  and  _208
REMARK   80  A    between atoms: _207  and  _210
REMARK   81  A    between atoms: _210  and  _211
REMARK   82  A    between atoms: _216  and  _217
REMARK   83  A    between atoms: _219  and  _221
REMARK   84  A    between atoms: _221  and  _222
REMARK   85  A    between atoms: _221  and  _224
REMARK   86  A    between atoms: _224  and  _225
REMARK   87  A    between atoms: _225  and  _226
REMARK   88  A    between atoms: _226  and  _227
REMARK   89  A    between atoms: _236  and  _238
REMARK   90  A    between atoms: _238  and  _239
REMARK   91  A    between atoms: _238  and  _241
REMARK   92  A    between atoms: _241  and  _242
REMARK   93  A    between atoms: _242  and  _243
REMARK   94  A    between atoms: _245  and  _247
REMARK   95  A    between atoms: _247  and  _248
REMARK   96  A    between atoms: _247  and  _250
REMARK   97  A    between atoms: _250  and  _251
REMARK   98  A    between atoms: _257  and  _259
REMARK   99  A    between atoms: _259  and  _260
REMARK  100  A    between atoms: _259  and  _262
REMARK  101  A    between atoms: _265  and  _267
REMARK  102  A    between atoms: _267  and  _268
REMARK  103  A    between atoms: _267  and  _270
REMARK  104  A    between atoms: _270  and  _271
REMARK  105  A    between atoms: _271  and  _272
REMARK  106  A    between atoms: _272  and  _273
REMARK  107  A    between atoms: _282  and  _284
REMARK  108  A    between atoms: _284  and  _285
REMARK  109  A    between atoms: _284  and  _287
REMARK  110  A    between atoms: _287  and  _288
REMARK  111  A    between atoms: _293  and  _295
REMARK  112  A    between atoms: _295  and  _296
REMARK  113  A    between atoms: _295  and  _298
REMARK  114  A    between atoms: _298  and  _299
REMARK  115  A    between atoms: _304  and  _305
REMARK  116  A    between atoms: _307  and  _309
REMARK  117  A    between atoms: _309  and  _310
REMARK  118  A    between atoms: _309  and  _312
REMARK  119  A    between atoms: _312  and  _313
REMARK  120  A    between atoms: _313  and  _314
REMARK  121  A    between atoms: _314  and  _315
REMARK  122  A    between atoms: _324  and  _326
REMARK  123  A    between atoms: _326  and  _327
REMARK  124  A    between atoms: _326  and  _329
REMARK  125  A    between atoms: _329  and  _330
REMARK  126  A    between atoms: _335  and  _336
REMARK  127  A    between atoms: _338  and  _340
REMARK  128  A    between atoms: _340  and  _341
REMARK  129  A    between atoms: _340  and  _343
REMARK  130  A    between atoms: _343  and  _344
REMARK  131  A    between atoms: _346  and  _348
REMARK  132  A    between atoms: _348  and  _349
REMARK  133  A    between atoms: _348  and  _351
REMARK  134  A    between atoms: _351  and  _352
REMARK                            x       y       z     vdW  Elec       q    Type
REMARK                         _______ _______ _______ _____ _____    ______ ____
ROOT
ATOM      1  O   HOH     1      44.575  15.237  -6.848  0.00  0.00    +0.000 OA
ENDROOT
TORSDOF 0
REMARK  Name = ../refined-set-2016/1tok/1tok_pocket.pdb
REMARK  134 active torsions:
REMARK  status: ('A' for Active; 'I' for Inactive)
REMARK    1  A    between atoms: _1  and  _3
REMARK    2  A    between atoms: _3  and  _4
REMARK    3  A    between atoms: _3  and  _6
REMARK    4  A    between atoms: _6  and  _7
REMARK    5  A    between atoms: _11  and  _12
REMARK    6  A    between atoms: _17  and  _19
REMARK    7  A    between atoms: _19  and  _20
REMARK    8  A    between atoms: _19  and  _22
REMARK    9  A    between atoms: _22  and  _23
REMARK   10  A    between atoms: _26  and  _28
REMARK   11  A    between atoms: _28  and  _29
REMARK   12  A    between atoms: _28  and  _31
REMARK   13  A    between atoms: _31  and  _32
REMARK   14  A    between atoms: _35  and  _37
REMARK   15  A    between atoms: _37  and  _38
REMARK   16  A    between atoms: _40  and  _42
REMARK   17  A    between atoms: _42  and  _43
REMARK   18  A    between atoms: _42  and  _45
REMARK   19  A    between atoms: _45  and  _46
REMARK   20  A    between atoms: _49  and  _51
REMARK   21  A    between atoms: _51  and  _52
REMARK   22  A    between atoms: _51  and  _54
REMARK   23  A    between atoms: _54  and  _55
REMARK   24  A    between atoms: _58  and  _60
REMARK   25  A    between atoms: _60  and  _61
REMARK   26  A    between atoms: _63  and  _65
REMARK   27  A    between atoms: _65  and  _66
REMARK   28  A    between atoms: _65  and  _68
REMARK   29  A    between atoms: _68  and  _69
REMARK   30  A    between atoms: _72  and  _74
REMARK   31  A    between atoms: _74  and  _75
REMARK   32  A    between atoms: _77  and  _79
REMARK   33  A    between atoms: _79  and  _80
REMARK   34  A    between atoms: _79  and  _82
REMARK   35  A    between atoms: _85  and  _87
REMARK   36  A    between atoms: _87  and  _88
REMARK   37  A    between atoms: _90  and  _92
REMARK   38  A    between atoms: _92  and  _93
REMARK   39  A    between atoms: _92  and  _95
REMARK   40  A    between atoms: _95  and  _96
REMARK   41  A    between atoms: _98  and  _100
REMARK   42  A    between atoms: _100  and  _101
REMARK   43  A    between atoms: _100  and  _103
REMARK   44  A    between atoms: _103  and  _104
REMARK   45  A    between atoms: _115  and  _116
REMARK   46  A    between atoms: _121  and  _123
REMARK   47  A    between atoms: _123  and  _124
REMARK   48  A    between atoms: _123  and  _126
REMARK   49  A    between atoms: _126  and  _127
REMARK   50  A    between atoms: _132  and  _134
REMARK   51  A    between atoms: _134  and  _135
REMARK   52  A    between atoms: _134  and  _137
REMARK   53  A    between atoms: _137  and  _138
REMARK   54  A    between atoms: _144  and  _145
REMARK   55  A    between atoms: _150  and  _152
REMARK   56  A    between atoms: _152  and  _153
REMARK   57  A    between atoms: _156  and  _158
REMARK   58  A    between atoms: _158  and  _159
REMARK   59  A    between atoms: _158  and  _161
REMARK   60  A    between atoms: _161  and  _162
REMARK   61  A    between atoms: _167  and  _168
REMARK   62  A    between atoms: _170  and  _172
REMARK   63  A    between atoms: _172  and  _173
REMARK   64  A    between atoms: _172  and  _175
REMARK   65  A    between atoms: _175  and  _176
REMARK   66  A    between atoms: _183  and  _184
REMARK   67  A    between atoms: _184  and  _200
REMARK   68  A    between atoms: _185  and  _187
REMARK   69  A    between atoms: _187  and  _188
REMARK   70  A    between atoms: _188  and  _189
REMARK   71  A    between atoms: _193  and  _195
REMARK   72  A    between atoms: _195  and  _196
REMARK   73  A    between atoms: _195  and  _203
REMARK   74  A    between atoms: _196  and  _197
REMARK   75  A    between atoms: _197  and  _198
REMARK   76  A    between atoms: _198  and  _199
REMARK   77  A    between atoms: _199  and  _200
REMARK   78  A    between atoms: _205  and  _207
REMARK   79  A    between atoms: _207  and  _208
REMARK   80  A    between atoms: _207  and  _210
REMARK   81  A    between atoms: _210  and  _211
REMARK   82  A    between atoms: _216  and  _217
REMARK   83  A    between atoms: _219  and  _221
REMARK   84  A    between atoms: _221  and  _222
REMARK   85  A    between atoms: _221  and  _224
REMARK   86  A    between atoms: _224  and  _225
REMARK   87  A    between atoms: _225  and  _226
REMARK   88  A    between atoms: _226  and  _227
REMARK   89  A    between atoms: _236  and  _238
REMARK   90  A    between atoms: _238  and  _239
REMARK   91  A    between atoms: _238  and  _241
REMARK   92  A    between atoms: _241  and  _242
REMARK   93  A    between atoms: _242  and  _243
REMARK   94  A    between atoms: _245  and  _247
REMARK   95  A    between atoms: _247  and  _248
REMARK   96  A    between atoms: _247  and  _250
REMARK   97  A    between atoms: _250  and  _251
REMARK   98  A    between atoms: _257  and  _259
REMARK   99  A    between atoms: _259  and  _260
REMARK  100  A    between atoms: _259  and  _262
REMARK  101  A    between atoms: _265  and  _267
REMARK  102  A    between atoms: _267  and  _268
REMARK  103  A    between atoms: _267  and  _270
REMARK  104  A    between atoms: _270  and  _271
REMARK  105  A    between atoms: _271  and  _272
REMARK  106  A    between atoms: _272  and  _273
REMARK  107  A    between atoms: _282  and  _284
REMARK  108  A    between atoms: _284  and  _285
REMARK  109  A    between atoms: _284  and  _287
REMARK  110  A    between atoms: _287  and  _288
REMARK  111  A    between atoms: _293  and  _295
REMARK  112  A    between atoms: _295  and  _296
REMARK  113  A    between atoms: _295  and  _298
REMARK  114  A    between atoms: _298  and  _299
REMARK  115  A    between atoms: _304  and  _305
REMARK  116  A    between atoms: _307  and  _309
REMARK  117  A    between atoms: _309  and  _310
REMARK  118  A    between atoms: _309  and  _312
REMARK  119  A    between atoms: _312  and  _313
REMARK  120  A    between atoms: _313  and  _314
REMARK  121  A    between atoms: _314  and  _315
REMARK  122  A    between atoms: _324  and  _326
REMARK  123  A    between atoms: _326  and  _327
REMARK  124  A    between atoms: _326  and  _329
REMARK  125  A    between atoms: _329  and  _330
REMARK  126  A    between atoms: _335  and  _336
REMARK  127  A    between atoms: _338  and  _340
REMARK  128  A    between atoms: _340  and  _341
REMARK  129  A    between atoms: _340  and  _343
REMARK  130  A    between atoms: _343  and  _344
REMARK  131  A    between atoms: _346  and  _348
REMARK  132  A    between atoms: _348  and  _349
REMARK  133  A    between atoms: _348  and  _351
REMARK  134  A    between atoms: _351  and  _352
REMARK                            x       y       z     vdW  Elec       q    Type
REMARK                         _______ _______ _______ _____ _____    ______ ____
ROOT
ATOM      1  O   HOH     1      38.876  10.779  -7.474  0.00  0.00    +0.000 OA
ENDROOT
TORSDOF 0
REMARK  Name = ../refined-set-2016/1tok/1tok_pocket.pdb
REMARK  134 active torsions:
REMARK  status: ('A' for Active; 'I' for Inactive)
REMARK    1  A    between atoms: _1  and  _3
REMARK    2  A    between atoms: _3  and  _4
REMARK    3  A    between atoms: _3  and  _6
REMARK    4  A    between atoms: _6  and  _7
REMARK    5  A    between atoms: _11  and  _12
REMARK    6  A    between atoms: _17  and  _19
REMARK    7  A    between atoms: _19  and  _20
REMARK    8  A    between atoms: _19  and  _22
REMARK    9  A    between atoms: _22  and  _23
REMARK   10  A    between atoms: _26  and  _28
REMARK   11  A    between atoms: _28  and  _29
REMARK   12  A    between atoms: _28  and  _31
REMARK   13  A    between atoms: _31  and  _32
REMARK   14  A    between atoms: _35  and  _37
REMARK   15  A    between atoms: _37  and  _38
REMARK   16  A    between atoms: _40  and  _42
REMARK   17  A    between atoms: _42  and  _43
REMARK   18  A    between atoms: _42  and  _45
REMARK   19  A    between atoms: _45  and  _46
REMARK   20  A    between atoms: _49  and  _51
REMARK   21  A    between atoms: _51  and  _52
REMARK   22  A    between atoms: _51  and  _54
REMARK   23  A    between atoms: _54  and  _55
REMARK   24  A    between atoms: _58  and  _60
REMARK   25  A    between atoms: _60  and  _61
REMARK   26  A    between atoms: _63  and  _65
REMARK   27  A    between atoms: _65  and  _66
REMARK   28  A    between atoms: _65  and  _68
REMARK   29  A    between atoms: _68  and  _69
REMARK   30  A    between atoms: _72  and  _74
REMARK   31  A    between atoms: _74  and  _75
REMARK   32  A    between atoms: _77  and  _79
REMARK   33  A    between atoms: _79  and  _80
REMARK   34  A    between atoms: _79  and  _82
REMARK   35  A    between atoms: _85  and  _87
REMARK   36  A    between atoms: _87  and  _88
REMARK   37  A    between atoms: _90  and  _92
REMARK   38  A    between atoms: _92  and  _93
REMARK   39  A    between atoms: _92  and  _95
REMARK   40  A    between atoms: _95  and  _96
REMARK   41  A    between atoms: _98  and  _100
REMARK   42  A    between atoms: _100  and  _101
REMARK   43  A    between atoms: _100  and  _103
REMARK   44  A    between atoms: _103  and  _104
REMARK   45  A    between atoms: _115  and  _116
REMARK   46  A    between atoms: _121  and  _123
REMARK   47  A    between atoms: _123  and  _124
REMARK   48  A    between atoms: _123  and  _126
REMARK   49  A    between atoms: _126  and  _127
REMARK   50  A    between atoms: _132  and  _134
REMARK   51  A    between atoms: _134  and  _135
REMARK   52  A    between atoms: _134  and  _137
REMARK   53  A    between atoms: _137  and  _138
REMARK   54  A    between atoms: _144  and  _145
REMARK   55  A    between atoms: _150  and  _152
REMARK   56  A    between atoms: _152  and  _153
REMARK   57  A    between atoms: _156  and  _158
REMARK   58  A    between atoms: _158  and  _159
REMARK   59  A    between atoms: _158  and  _161
REMARK   60  A    between atoms: _161  and  _162
REMARK   61  A    between atoms: _167  and  _168
REMARK   62  A    between atoms: _170  and  _172
REMARK   63  A    between atoms: _172  and  _173
REMARK   64  A    between atoms: _172  and  _175
REMARK   65  A    between atoms: _175  and  _176
REMARK   66  A    between atoms: _183  and  _184
REMARK   67  A    between atoms: _184  and  _200
REMARK   68  A    between atoms: _185  and  _187
REMARK   69  A    between atoms: _187  and  _188
REMARK   70  A    between atoms: _188  and  _189
REMARK   71  A    between atoms: _193  and  _195
REMARK   72  A    between atoms: _195  and  _196
REMARK   73  A    between atoms: _195  and  _203
REMARK   74  A    between atoms: _196  and  _197
REMARK   75  A    between atoms: _197  and  _198
REMARK   76  A    between atoms: _198  and  _199
REMARK   77  A    between atoms: _199  and  _200
REMARK   78  A    between atoms: _205  and  _207
REMARK   79  A    between atoms: _207  and  _208
REMARK   80  A    between atoms: _207  and  _210
REMARK   81  A    between atoms: _210  and  _211
REMARK   82  A    between atoms: _216  and  _217
REMARK   83  A    between atoms: _219  and  _221
REMARK   84  A    between atoms: _221  and  _222
REMARK   85  A    between atoms: _221  and  _224
REMARK   86  A    between atoms: _224  and  _225
REMARK   87  A    between atoms: _225  and  _226
REMARK   88  A    between atoms: _226  and  _227
REMARK   89  A    between atoms: _236  and  _238
REMARK   90  A    between atoms: _238  and  _239
REMARK   91  A    between atoms: _238  and  _241
REMARK   92  A    between atoms: _241  and  _242
REMARK   93  A    between atoms: _242  and  _243
REMARK   94  A    between atoms: _245  and  _247
REMARK   95  A    between atoms: _247  and  _248
REMARK   96  A    between atoms: _247  and  _250
REMARK   97  A    between atoms: _250  and  _251
REMARK   98  A    between atoms: _257  and  _259
REMARK   99  A    between atoms: _259  and  _260
REMARK  100  A    between atoms: _259  and  _262
REMARK  101  A    between atoms: _265  and  _267
REMARK  102  A    between atoms: _267  and  _268
REMARK  103  A    between atoms: _267  and  _270
REMARK  104  A    between atoms: _270  and  _271
REMARK  105  A    between atoms: _271  and  _272
REMARK  106  A    between atoms: _272  and  _273
REMARK  107  A    between atoms: _282  and  _284
REMARK  108  A    between atoms: _284  and  _285
REMARK  109  A    between atoms: _284  and  _287
REMARK  110  A    between atoms: _287  and  _288
REMARK  111  A    between atoms: _293  and  _295
REMARK  112  A    between atoms: _295  and  _296
REMARK  113  A    between atoms: _295  and  _298
REMARK  114  A    between atoms: _298  and  _299
REMARK  115  A    between atoms: _304  and  _305
REMARK  116  A    between atoms: _307  and  _309
REMARK  117  A    between atoms: _309  and  _310
REMARK  118  A    between atoms: _309  and  _312
REMARK  119  A    between atoms: _312  and  _313
REMARK  120  A    between atoms: _313  and  _314
REMARK  121  A    between atoms: _314  and  _315
REMARK  122  A    between atoms: _324  and  _326
REMARK  123  A    between atoms: _326  and  _327
REMARK  124  A    between atoms: _326  and  _329
REMARK  125  A    between atoms: _329  and  _330
REMARK  126  A    between atoms: _335  and  _336
REMARK  127  A    between atoms: _338  and  _340
REMARK  128  A    between atoms: _340  and  _341
REMARK  129  A    between atoms: _340  and  _343
REMARK  130  A    between atoms: _343  and  _344
REMARK  131  A    between atoms: _346  and  _348
REMARK  132  A    between atoms: _348  and  _349
REMARK  133  A    between atoms: _348  and  _351
REMARK  134  A    between atoms: _351  and  _352
REMARK                            x       y       z     vdW  Elec       q    Type
REMARK                         _______ _______ _______ _____ _____    ______ ____
ROOT
ATOM      1  O   HOH     1      30.319  12.917  -9.090  0.00  0.00    +0.000 OA
ENDROOT
TORSDOF 0
REMARK  Name = ../refined-set-2016/1tok/1tok_pocket.pdb
REMARK  134 active torsions:
REMARK  status: ('A' for Active; 'I' for Inactive)
REMARK    1  A    between atoms: _1  and  _3
REMARK    2  A    between atoms: _3  and  _4
REMARK    3  A    between atoms: _3  and  _6
REMARK    4  A    between atoms: _6  and  _7
REMARK    5  A    between atoms: _11  and  _12
REMARK    6  A    between atoms: _17  and  _19
REMARK    7  A    between atoms: _19  and  _20
REMARK    8  A    between atoms: _19  and  _22
REMARK    9  A    between atoms: _22  and  _23
REMARK   10  A    between atoms: _26  and  _28
REMARK   11  A    between atoms: _28  and  _29
REMARK   12  A    between atoms: _28  and  _31
REMARK   13  A    between atoms: _31  and  _32
REMARK   14  A    between atoms: _35  and  _37
REMARK   15  A    between atoms: _37  and  _38
REMARK   16  A    between atoms: _40  and  _42
REMARK   17  A    between atoms: _42  and  _43
REMARK   18  A    between atoms: _42  and  _45
REMARK   19  A    between atoms: _45  and  _46
REMARK   20  A    between atoms: _49  and  _51
REMARK   21  A    between atoms: _51  and  _52
REMARK   22  A    between atoms: _51  and  _54
REMARK   23  A    between atoms: _54  and  _55
REMARK   24  A    between atoms: _58  and  _60
REMARK   25  A    between atoms: _60  and  _61
REMARK   26  A    between atoms: _63  and  _65
REMARK   27  A    between atoms: _65  and  _66
REMARK   28  A    between atoms: _65  and  _68
REMARK   29  A    between atoms: _68  and  _69
REMARK   30  A    between atoms: _72  and  _74
REMARK   31  A    between atoms: _74  and  _75
REMARK   32  A    between atoms: _77  and  _79
REMARK   33  A    between atoms: _79  and  _80
REMARK   34  A    between atoms: _79  and  _82
REMARK   35  A    between atoms: _85  and  _87
REMARK   36  A    between atoms: _87  and  _88
REMARK   37  A    between atoms: _90  and  _92
REMARK   38  A    between atoms: _92  and  _93
REMARK   39  A    between atoms: _92  and  _95
REMARK   40  A    between atoms: _95  and  _96
REMARK   41  A    between atoms: _98  and  _100
REMARK   42  A    between atoms: _100  and  _101
REMARK   43  A    between atoms: _100  and  _103
REMARK   44  A    between atoms: _103  and  _104
REMARK   45  A    between atoms: _115  and  _116
REMARK   46  A    between atoms: _121  and  _123
REMARK   47  A    between atoms: _123  and  _124
REMARK   48  A    between atoms: _123  and  _126
REMARK   49  A    between atoms: _126  and  _127
REMARK   50  A    between atoms: _132  and  _134
REMARK   51  A    between atoms: _134  and  _135
REMARK   52  A    between atoms: _134  and  _137
REMARK   53  A    between atoms: _137  and  _138
REMARK   54  A    between atoms: _144  and  _145
REMARK   55  A    between atoms: _150  and  _152
REMARK   56  A    between atoms: _152  and  _153
REMARK   57  A    between atoms: _156  and  _158
REMARK   58  A    between atoms: _158  and  _159
REMARK   59  A    between atoms: _158  and  _161
REMARK   60  A    between atoms: _161  and  _162
REMARK   61  A    between atoms: _167  and  _168
REMARK   62  A    between atoms: _170  and  _172
REMARK   63  A    between atoms: _172  and  _173
REMARK   64  A    between atoms: _172  and  _175
REMARK   65  A    between atoms: _175  and  _176
REMARK   66  A    between atoms: _183  and  _184
REMARK   67  A    between atoms: _184  and  _200
REMARK   68  A    between atoms: _185  and  _187
REMARK   69  A    between atoms: _187  and  _188
REMARK   70  A    between atoms: _188  and  _189
REMARK   71  A    between atoms: _193  and  _195
REMARK   72  A    between atoms: _195  and  _196
REMARK   73  A    between atoms: _195  and  _203
REMARK   74  A    between atoms: _196  and  _197
REMARK   75  A    between atoms: _197  and  _198
REMARK   76  A    between atoms: _198  and  _199
REMARK   77  A    between atoms: _199  and  _200
REMARK   78  A    between atoms: _205  and  _207
REMARK   79  A    between atoms: _207  and  _208
REMARK   80  A    between atoms: _207  and  _210
REMARK   81  A    between atoms: _210  and  _211
REMARK   82  A    between atoms: _216  and  _217
REMARK   83  A    between atoms: _219  and  _221
REMARK   84  A    between atoms: _221  and  _222
REMARK   85  A    between atoms: _221  and  _224
REMARK   86  A    between atoms: _224  and  _225
REMARK   87  A    between atoms: _225  and  _226
REMARK   88  A    between atoms: _226  and  _227
REMARK   89  A    between atoms: _236  and  _238
REMARK   90  A    between atoms: _238  and  _239
REMARK   91  A    between atoms: _238  and  _241
REMARK   92  A    between atoms: _241  and  _242
REMARK   93  A    between atoms: _242  and  _243
REMARK   94  A    between atoms: _245  and  _247
REMARK   95  A    between atoms: _247  and  _248
REMARK   96  A    between atoms: _247  and  _250
REMARK   97  A    between atoms: _250  and  _251
REMARK   98  A    between atoms: _257  and  _259
REMARK   99  A    between atoms: _259  and  _260
REMARK  100  A    between atoms: _259  and  _262
REMARK  101  A    between atoms: _265  and  _267
REMARK  102  A    between atoms: _267  and  _268
REMARK  103  A    between atoms: _267  and  _270
REMARK  104  A    between atoms: _270  and  _271
REMARK  105  A    between atoms: _271  and  _272
REMARK  106  A    between atoms: _272  and  _273
REMARK  107  A    between atoms: _282  and  _284
REMARK  108  A    between atoms: _284  and  _285
REMARK  109  A    between atoms: _284  and  _287
REMARK  110  A    between atoms: _287  and  _288
REMARK  111  A    between atoms: _293  and  _295
REMARK  112  A    between atoms: _295  and  _296
REMARK  113  A    between atoms: _295  and  _298
REMARK  114  A    between atoms: _298  and  _299
REMARK  115  A    between atoms: _304  and  _305
REMARK  116  A    between atoms: _307  and  _309
REMARK  117  A    between atoms: _309  and  _310
REMARK  118  A    between atoms: _309  and  _312
REMARK  119  A    between atoms: _312  and  _313
REMARK  120  A    between atoms: _313  and  _314
REMARK  121  A    between atoms: _314  and  _315
REMARK  122  A    between atoms: _324  and  _326
REMARK  123  A    between atoms: _326  and  _327
REMARK  124  A    between atoms: _326  and  _329
REMARK  125  A    between atoms: _329  and  _330
REMARK  126  A    between atoms: _335  and  _336
REMARK  127  A    between atoms: _338  and  _340
REMARK  128  A    between atoms: _340  and  _341
REMARK  129  A    between atoms: _340  and  _343
REMARK  130  A    between atoms: _343  and  _344
REMARK  131  A    between atoms: _346  and  _348
REMARK  132  A    between atoms: _348  and  _349
REMARK  133  A    between atoms: _348  and  _351
REMARK  134  A    between atoms: _351  and  _352
REMARK                            x       y       z     vdW  Elec       q    Type
REMARK                         _______ _______ _______ _____ _____    ______ ____
ROOT
ATOM      1  O   HOH     1      33.559  12.452  -2.701  0.00  0.00    +0.000 OA
ENDROOT
TORSDOF 0
REMARK  Name = ../refined-set-2016/1tok/1tok_pocket.pdb
REMARK  134 active torsions:
REMARK  status: ('A' for Active; 'I' for Inactive)
REMARK    1  A    between atoms: _1  and  _3
REMARK    2  A    between atoms: _3  and  _4
REMARK    3  A    between atoms: _3  and  _6
REMARK    4  A    between atoms: _6  and  _7
REMARK    5  A    between atoms: _11  and  _12
REMARK    6  A    between atoms: _17  and  _19
REMARK    7  A    between atoms: _19  and  _20
REMARK    8  A    between atoms: _19  and  _22
REMARK    9  A    between atoms: _22  and  _23
REMARK   10  A    between atoms: _26  and  _28
REMARK   11  A    between atoms: _28  and  _29
REMARK   12  A    between atoms: _28  and  _31
REMARK   13  A    between atoms: _31  and  _32
REMARK   14  A    between atoms: _35  and  _37
REMARK   15  A    between atoms: _37  and  _38
REMARK   16  A    between atoms: _40  and  _42
REMARK   17  A    between atoms: _42  and  _43
REMARK   18  A    between atoms: _42  and  _45
REMARK   19  A    between atoms: _45  and  _46
REMARK   20  A    between atoms: _49  and  _51
REMARK   21  A    between atoms: _51  and  _52
REMARK   22  A    between atoms: _51  and  _54
REMARK   23  A    between atoms: _54  and  _55
REMARK   24  A    between atoms: _58  and  _60
REMARK   25  A    between atoms: _60  and  _61
REMARK   26  A    between atoms: _63  and  _65
REMARK   27  A    between atoms: _65  and  _66
REMARK   28  A    between atoms: _65  and  _68
REMARK   29  A    between atoms: _68  and  _69
REMARK   30  A    between atoms: _72  and  _74
REMARK   31  A    between atoms: _74  and  _75
REMARK   32  A    between atoms: _77  and  _79
REMARK   33  A    between atoms: _79  and  _80
REMARK   34  A    between atoms: _79  and  _82
REMARK   35  A    between atoms: _85  and  _87
REMARK   36  A    between atoms: _87  and  _88
REMARK   37  A    between atoms: _90  and  _92
REMARK   38  A    between atoms: _92  and  _93
REMARK   39  A    between atoms: _92  and  _95
REMARK   40  A    between atoms: _95  and  _96
REMARK   41  A    between atoms: _98  and  _100
REMARK   42  A    between atoms: _100  and  _101
REMARK   43  A    between atoms: _100  and  _103
REMARK   44  A    between atoms: _103  and  _104
REMARK   45  A    between atoms: _115  and  _116
REMARK   46  A    between atoms: _121  and  _123
REMARK   47  A    between atoms: _123  and  _124
REMARK   48  A    between atoms: _123  and  _126
REMARK   49  A    between atoms: _126  and  _127
REMARK   50  A    between atoms: _132  and  _134
REMARK   51  A    between atoms: _134  and  _135
REMARK   52  A    between atoms: _134  and  _137
REMARK   53  A    between atoms: _137  and  _138
REMARK   54  A    between atoms: _144  and  _145
REMARK   55  A    between atoms: _150  and  _152
REMARK   56  A    between atoms: _152  and  _153
REMARK   57  A    between atoms: _156  and  _158
REMARK   58  A    between atoms: _158  and  _159
REMARK   59  A    between atoms: _158  and  _161
REMARK   60  A    between atoms: _161  and  _162
REMARK   61  A    between atoms: _167  and  _168
REMARK   62  A    between atoms: _170  and  _172
REMARK   63  A    between atoms: _172  and  _173
REMARK   64  A    between atoms: _172  and  _175
REMARK   65  A    between atoms: _175  and  _176
REMARK   66  A    between atoms: _183  and  _184
REMARK   67  A    between atoms: _184  and  _200
REMARK   68  A    between atoms: _185  and  _187
REMARK   69  A    between atoms: _187  and  _188
REMARK   70  A    between atoms: _188  and  _189
REMARK   71  A    between atoms: _193  and  _195
REMARK   72  A    between atoms: _195  and  _196
REMARK   73  A    between atoms: _195  and  _203
REMARK   74  A    between atoms: _196  and  _197
REMARK   75  A    between atoms: _197  and  _198
REMARK   76  A    between atoms: _198  and  _199
REMARK   77  A    between atoms: _199  and  _200
REMARK   78  A    between atoms: _205  and  _207
REMARK   79  A    between atoms: _207  and  _208
REMARK   80  A    between atoms: _207  and  _210
REMARK   81  A    between atoms: _210  and  _211
REMARK   82  A    between atoms: _216  and  _217
REMARK   83  A    between atoms: _219  and  _221
REMARK   84  A    between atoms: _221  and  _222
REMARK   85  A    between atoms: _221  and  _224
REMARK   86  A    between atoms: _224  and  _225
REMARK   87  A    between atoms: _225  and  _226
REMARK   88  A    between atoms: _226  and  _227
REMARK   89  A    between atoms: _236  and  _238
REMARK   90  A    between atoms: _238  and  _239
REMARK   91  A    between atoms: _238  and  _241
REMARK   92  A    between atoms: _241  and  _242
REMARK   93  A    between atoms: _242  and  _243
REMARK   94  A    between atoms: _245  and  _247
REMARK   95  A    between atoms: _247  and  _248
REMARK   96  A    between atoms: _247  and  _250
REMARK   97  A    between atoms: _250  and  _251
REMARK   98  A    between atoms: _257  and  _259
REMARK   99  A    between atoms: _259  and  _260
REMARK  100  A    between atoms: _259  and  _262
REMARK  101  A    between atoms: _265  and  _267
REMARK  102  A    between atoms: _267  and  _268
REMARK  103  A    between atoms: _267  and  _270
REMARK  104  A    between atoms: _270  and  _271
REMARK  105  A    between atoms: _271  and  _272
REMARK  106  A    between atoms: _272  and  _273
REMARK  107  A    between atoms: _282  and  _284
REMARK  108  A    between atoms: _284  and  _285
REMARK  109  A    between atoms: _284  and  _287
REMARK  110  A    between atoms: _287  and  _288
REMARK  111  A    between atoms: _293  and  _295
REMARK  112  A    between atoms: _295  and  _296
REMARK  113  A    between atoms: _295  and  _298
REMARK  114  A    between atoms: _298  and  _299
REMARK  115  A    between atoms: _304  and  _305
REMARK  116  A    between atoms: _307  and  _309
REMARK  117  A    between atoms: _309  and  _310
REMARK  118  A    between atoms: _309  and  _312
REMARK  119  A    between atoms: _312  and  _313
REMARK  120  A    between atoms: _313  and  _314
REMARK  121  A    between atoms: _314  and  _315
REMARK  122  A    between atoms: _324  and  _326
REMARK  123  A    between atoms: _326  and  _327
REMARK  124  A    between atoms: _326  and  _329
REMARK  125  A    between atoms: _329  and  _330
REMARK  126  A    between atoms: _335  and  _336
REMARK  127  A    between atoms: _338  and  _340
REMARK  128  A    between atoms: _340  and  _341
REMARK  129  A    between atoms: _340  and  _343
REMARK  130  A    between atoms: _343  and  _344
REMARK  131  A    between atoms: _346  and  _348
REMARK  132  A    between atoms: _348  and  _349
REMARK  133  A    between atoms: _348  and  _351
REMARK  134  A    between atoms: _351  and  _352
REMARK                            x       y       z     vdW  Elec       q    Type
REMARK                         _______ _______ _______ _____ _____    ______ ____
ROOT
ATOM      1  O   HOH     1      38.943  24.057  -3.349  0.00  0.00    +0.000 OA
ENDROOT
TORSDOF 0
