REMARK  Name = ../refined-set-2016/3ie3/3ie3_pocket.pdb
REMARK  134 active torsions:
REMARK  status: ('A' for Active; 'I' for Inactive)
REMARK    1  A    between atoms: _1  and  _3
REMARK    2  A    between atoms: _3  and  _4
REMARK    3  A    between atoms: _3  and  _6
REMARK    4  A    between atoms: _6  and  _7
REMARK    5  A    between atoms: _12  and  _13
REMARK    6  A    between atoms: _15  and  _17
REMARK    7  A    between atoms: _17  and  _18
REMARK    8  A    between atoms: _17  and  _20
REMARK    9  A    between atoms: _20  and  _21
REMARK   10  A    between atoms: _28  and  _29
REMARK   11  A    between atoms: _34  and  _36
REMARK   12  A    between atoms: _36  and  _37
REMARK   13  A    between atoms: _36  and  _39
REMARK   14  A    between atoms: _42  and  _44
REMARK   15  A    between atoms: _44  and  _45
REMARK   16  A    between atoms: _44  and  _47
REMARK   17  A    between atoms: _47  and  _48
REMARK   18  A    between atoms: _48  and  _49
REMARK   19  A    between atoms: _49  and  _50
REMARK   20  A    between atoms: _59  and  _61
REMARK   21  A    between atoms: _61  and  _62
REMARK   22  A    between atoms: _64  and  _66
REMARK   23  A    between atoms: _66  and  _67
REMARK   24  A    between atoms: _66  and  _69
REMARK   25  A    between atoms: _69  and  _70
REMARK   26  A    between atoms: _70  and  _71
REMARK   27  A    between atoms: _71  and  _72
REMARK   28  A    between atoms: _81  and  _83
REMARK   29  A    between atoms: _83  and  _84
REMARK   30  A    between atoms: _83  and  _86
REMARK   31  A    between atoms: _88  and  _90
REMARK   32  A    between atoms: _90  and  _91
REMARK   33  A    between atoms: _90  and  _93
REMARK   34  A    between atoms: _96  and  _98
REMARK   35  A    between atoms: _98  and  _99
REMARK   36  A    between atoms: _98  and  _101
REMARK   37  A    between atoms: _101  and  _102
REMARK   38  A    between atoms: _105  and  _107
REMARK   39  A    between atoms: _107  and  _108
REMARK   40  A    between atoms: _107  and  _110
REMARK   41  A    between atoms: _113  and  _115
REMARK   42  A    between atoms: _115  and  _116
REMARK   43  A    between atoms: _115  and  _118
REMARK   44  A    between atoms: _118  and  _119
REMARK   45  A    between atoms: _119  and  _120
REMARK   46  A    between atoms: _123  and  _125
REMARK   47  A    between atoms: _125  and  _126
REMARK   48  A    between atoms: _125  and  _128
REMARK   49  A    between atoms: _128  and  _129
REMARK   50  A    between atoms: _139  and  _141
REMARK   51  A    between atoms: _141  and  _142
REMARK   52  A    between atoms: _141  and  _144
REMARK   53  A    between atoms: _144  and  _145
REMARK   54  A    between atoms: _145  and  _146
REMARK   55  A    between atoms: _151  and  _153
REMARK   56  A    between atoms: _153  and  _154
REMARK   57  A    between atoms: _153  and  _156
REMARK   58  A    between atoms: _156  and  _157
REMARK   59  A    between atoms: _157  and  _158
REMARK   60  A    between atoms: _161  and  _163
REMARK   61  A    between atoms: _163  and  _164
REMARK   62  A    between atoms: _163  and  _166
REMARK   63  A    between atoms: _166  and  _167
REMARK   64  A    between atoms: _167  and  _168
REMARK   65  A    between atoms: _168  and  _169
REMARK   66  A    between atoms: _169  and  _170
REMARK   67  A    between atoms: _174  and  _176
REMARK   68  A    between atoms: _176  and  _177
REMARK   69  A    between atoms: _176  and  _179
REMARK   70  A    between atoms: _179  and  _180
REMARK   71  A    between atoms: _180  and  _181
REMARK   72  A    between atoms: _186  and  _188
REMARK   73  A    between atoms: _188  and  _189
REMARK   74  A    between atoms: _188  and  _191
REMARK   75  A    between atoms: _191  and  _192
REMARK   76  A    between atoms: _196  and  _197
REMARK   77  A    between atoms: _202  and  _204
REMARK   78  A    between atoms: _204  and  _205
REMARK   79  A    between atoms: _204  and  _207
REMARK   80  A    between atoms: _207  and  _208
REMARK   81  A    between atoms: _210  and  _212
REMARK   82  A    between atoms: _212  and  _213
REMARK   83  A    between atoms: _212  and  _215
REMARK   84  A    between atoms: _215  and  _216
REMARK   85  A    between atoms: _216  and  _217
REMARK   86  A    between atoms: _220  and  _222
REMARK   87  A    between atoms: _222  and  _223
REMARK   88  A    between atoms: _222  and  _225
REMARK   89  A    between atoms: _225  and  _226
REMARK   90  A    between atoms: _226  and  _227
REMARK   91  A    between atoms: _227  and  _228
REMARK   92  A    between atoms: _237  and  _239
REMARK   93  A    between atoms: _239  and  _240
REMARK   94  A    between atoms: _239  and  _242
REMARK   95  A    between atoms: _244  and  _246
REMARK   96  A    between atoms: _246  and  _247
REMARK   97  A    between atoms: _246  and  _249
REMARK   98  A    between atoms: _249  and  _250
REMARK   99  A    between atoms: _255  and  _256
REMARK  100  A    between atoms: _258  and  _260
REMARK  101  A    between atoms: _260  and  _261
REMARK  102  A    between atoms: _264  and  _266
REMARK  103  A    between atoms: _266  and  _267
REMARK  104  A    between atoms: _266  and  _269
REMARK  105  A    between atoms: _269  and  _270
REMARK  106  A    between atoms: _272  and  _274
REMARK  107  A    between atoms: _274  and  _275
REMARK  108  A    between atoms: _274  and  _277
REMARK  109  A    between atoms: _277  and  _278
REMARK  110  A    between atoms: _281  and  _283
REMARK  111  A    between atoms: _283  and  _284
REMARK  112  A    between atoms: _283  and  _286
REMARK  113  A    between atoms: _286  and  _287
REMARK  114  A    between atoms: _292  and  _293
REMARK  115  A    between atoms: _295  and  _297
REMARK  116  A    between atoms: _297  and  _298
REMARK  117  A    between atoms: _297  and  _300
REMARK  118  A    between atoms: _300  and  _301
REMARK  119  A    between atoms: _304  and  _306
REMARK  120  A    between atoms: _306  and  _307
REMARK  121  A    between atoms: _306  and  _309
REMARK  122  A    between atoms: _309  and  _310
REMARK  123  A    between atoms: _313  and  _315
REMARK  124  A    between atoms: _315  and  _316
REMARK  125  A    between atoms: _315  and  _318
REMARK  126  A    between atoms: _318  and  _319
REMARK  127  A    between atoms: _324  and  _326
REMARK  128  A    between atoms: _326  and  _327
REMARK  129  A    between atoms: _329  and  _331
REMARK  130  A    between atoms: _331  and  _332
REMARK  131  A    between atoms: _331  and  _334
REMARK  132  A    between atoms: _334  and  _335
REMARK  133  A    between atoms: _340  and  _342
REMARK  134  A    between atoms: _342  and  _343
REMARK                            x       y       z     vdW  Elec       q    Type
REMARK                         _______ _______ _______ _____ _____    ______ ____
ROOT
ATOM      1  CA  ARG A   5      14.429  -4.082  26.143  0.00  0.00    +0.149 C 
ENDROOT
BRANCH   1   4
ATOM      2  C   VAL A   4      13.073  -3.700  28.142  0.00  0.00    +0.241 C 
ATOM      3  O   VAL A   4      13.985  -3.107  28.723  0.00  0.00    -0.273 OA
ATOM      4  N   ARG A   5      13.202  -4.228  26.933  0.00  0.00    -0.297 N 
ATOM      5  H   ARG A   5      12.406  -4.764  26.531  0.00  0.00    +0.150 HD
BRANCH   2   6
ATOM      6  CA  VAL A   4      11.708  -3.870  28.796  0.00  0.00    +0.149 C 
BRANCH   6   9
ATOM      7  C   PRO A   3      11.094  -4.240  31.140  0.00  0.00    +0.241 C 
ATOM      8  O   PRO A   3      10.221  -5.072  30.854  0.00  0.00    -0.273 OA
ATOM      9  N   VAL A   4      11.821  -3.602  30.228  0.00  0.00    -0.297 N 
ATOM     10  H   VAL A   4      12.499  -2.881  30.547  0.00  0.00    +0.150 HD
BRANCH   7  16
ATOM     11  C   PHE A   2      11.776  -1.438  32.410  0.00  0.00    +0.244 C 
ATOM     12  N   PRO A   3      11.001  -2.451  32.855  0.00  0.00    -0.272 N 
ATOM     13  CD  PRO A   3       9.752  -2.341  33.634  0.00  0.00    +0.094 C 
ATOM     14  CG  PRO A   3       9.262  -3.764  33.722  0.00  0.00    +0.024 C 
ATOM     15  CB  PRO A   3      10.464  -4.624  33.566  0.00  0.00    +0.031 C 
ATOM     16  CA  PRO A   3      11.363  -3.852  32.599  0.00  0.00    +0.152 C 
ATOM     17  O   PHE A   2      12.848  -1.628  31.822  0.00  0.00    -0.273 OA
BRANCH  11  18
ATOM     18  CA  PHE A   2      11.294  -0.006  32.665  0.00  0.00    +0.153 C 
BRANCH  18  21
ATOM     19  C   TYR A   1      13.454   0.916  33.349  0.00  0.00    +0.239 C 
ATOM     20  O   TYR A   1      13.485   0.278  34.405  0.00  0.00    -0.274 OA
ATOM     21  N   PHE A   2      12.415   0.914  32.519  0.00  0.00    -0.297 N 
ATOM     22  H   PHE A   2      12.402   1.596  31.734  0.00  0.00    +0.150 HD
BRANCH  19  23
ATOM     23  CA  TYR A   1      14.634   1.776  32.916  0.00  0.00    +0.149 C 
BRANCH  23  24
ATOM     24  N   TYR A   1      15.610   1.989  33.989  0.00  0.00    -0.238 NA
ATOM     25  H   TYR A   1      15.666   1.307  34.772  0.00  0.00    +0.142 HD
ENDBRANCH  23  24
BRANCH  23  26
ATOM     26  CB  TYR A   1      15.330   1.125  31.713  0.00  0.00    +0.053 C 
BRANCH  26  27
ATOM     27  CG  TYR A   1      14.645   1.297  30.370  0.00  0.00    -0.020 A 
ATOM     28  CD2 TYR A   1      14.227   2.556  29.922  0.00  0.00    -0.001 A 
ATOM     29  CE2 TYR A   1      13.615   2.712  28.675  0.00  0.00    +0.036 A 
ATOM     30  CZ  TYR A   1      13.436   1.603  27.859  0.00  0.00    +0.134 A 
ATOM     31  CE1 TYR A   1      13.859   0.349  28.276  0.00  0.00    +0.036 A 
ATOM     32  CD1 TYR A   1      14.458   0.202  29.522  0.00  0.00    -0.001 A 
BRANCH  30  33
ATOM     33  OH  TYR A   1      12.838   1.744  26.627  0.00  0.00    -0.506 OA
ATOM     34  HH  TYR A   1      12.598   2.694  26.485  0.00  0.00    +0.292 HD
ENDBRANCH  30  33
ENDBRANCH  26  27
ENDBRANCH  23  26
ENDBRANCH  19  23
ENDBRANCH  18  21
BRANCH  18  35
ATOM     35  CB  PHE A   2      10.184   0.375  31.678  0.00  0.00    +0.055 C 
BRANCH  35  36
ATOM     36  CG  PHE A   2       9.758   1.811  31.776  0.00  0.00    -0.020 A 
ATOM     37  CD2 PHE A   2       8.993   2.250  32.855  0.00  0.00    -0.004 A 
ATOM     38  CE2 PHE A   2       8.607   3.580  32.958  0.00  0.00    -0.000 A 
ATOM     39  CZ  PHE A   2       8.987   4.491  31.972  0.00  0.00    -0.000 A 
ATOM     40  CE1 PHE A   2       9.753   4.064  30.893  0.00  0.00    -0.000 A 
ATOM     41  CD1 PHE A   2      10.135   2.730  30.801  0.00  0.00    -0.004 A 
ENDBRANCH  35  36
ENDBRANCH  18  35
ENDBRANCH  11  18
ENDBRANCH   7  16
ENDBRANCH   6   9
BRANCH   6  42
ATOM     42  CB  VAL A   4      10.671  -2.944  28.079  0.00  0.00    +0.027 C 
ATOM     43  CG2 VAL A   4       9.245  -3.271  28.503  0.00  0.00    +0.002 C 
ATOM     44  CG1 VAL A   4      10.979  -1.471  28.316  0.00  0.00    +0.002 C 
ENDBRANCH   6  42
ENDBRANCH   2   6
ENDBRANCH   1   4
BRANCH   1  45
ATOM     45  C   ARG A   5      14.459  -2.669  25.564  0.00  0.00    +0.241 C 
ATOM     46  O   ARG A   5      15.315  -1.863  25.936  0.00  0.00    -0.273 OA
ATOM     47  N   GLY A   6      13.506  -2.381  24.676  0.00  0.00    -0.295 N 
ATOM     48  H   GLY A   6      12.907  -3.156  24.326  0.00  0.00    +0.150 HD
BRANCH  47  49
ATOM     49  CA  GLY A   6      13.260  -1.028  24.168  0.00  0.00    +0.176 C 
BRANCH  49  50
ATOM     50  C   GLY A   6      14.490  -0.227  23.790  0.00  0.00    +0.243 C 
ATOM     51  N   ARG A   7      14.583   0.984  24.341  0.00  0.00    -0.297 N 
ATOM     52  H   ARG A   7      13.857   1.280  25.024  0.00  0.00    +0.150 HD
ATOM     53  O   GLY A   6      15.341  -0.701  23.033  0.00  0.00    -0.273 OA
BRANCH  51  54
ATOM     54  CA  ARG A   7      15.670   1.912  24.019  0.00  0.00    +0.149 C 
BRANCH  54  55
ATOM     55  C   ARG A   7      16.947   1.677  24.830  0.00  0.00    +0.241 C 
ATOM     56  N   CYS A   8      16.964   0.611  25.630  0.00  0.00    -0.297 N 
ATOM     57  H   CYS A   8      16.095   0.050  25.741  0.00  0.00    +0.150 HD
ATOM     58  O   ARG A   7      17.904   2.446  24.715  0.00  0.00    -0.273 OA
BRANCH  56  59
ATOM     59  CA  CYS A   8      18.173   0.205  26.359  0.00  0.00    +0.149 C 
BRANCH  59  60
ATOM     60  CB  CYS A   8      17.865  -0.028  27.838  0.00  0.00    +0.096 C 
ATOM     61  SG  CYS A   8      17.674   1.488  28.782  0.00  0.00    -0.080 S 
ENDBRANCH  59  60
BRANCH  59  62
ATOM     62  C   CYS A   8      18.852  -1.038  25.781  0.00  0.00    +0.228 C 
ATOM     63  O   CYS A   8      19.966  -1.380  26.186  0.00  0.00    -0.286 OA
ENDBRANCH  59  62
ENDBRANCH  56  59
ENDBRANCH  54  55
BRANCH  54  64
ATOM     64  CB  ARG A   7      15.200   3.373  24.128  0.00  0.00    +0.033 C 
BRANCH  64  65
ATOM     65  CG  ARG A   7      14.341   3.822  22.946  0.00  0.00    +0.045 C 
BRANCH  65  66
ATOM     66  CD  ARG A   7      13.964   5.306  22.997  0.00  0.00    +0.174 C 
BRANCH  66  67
ATOM     67  NE  ARG A   7      13.339   5.711  21.737  0.00  0.00    -0.265 N 
ATOM     68  HE  ARG A   7      12.301   5.673  21.680  0.00  0.00    +0.259 HD
ATOM     69  CZ  ARG A   7      14.002   6.125  20.658  0.00  0.00    +0.342 C 
ATOM     70  NH2 ARG A   7      15.327   6.222  20.674  0.00  0.00    -0.292 N 
ATOM     71 HH21 ARG A   7      15.856   5.974  21.534  0.00  0.00    +0.255 HD
ATOM     72 HH22 ARG A   7      15.835   6.546  19.826  0.00  0.00    +0.255 HD
ATOM     73  NH1 ARG A   7      13.336   6.455  19.559  0.00  0.00    -0.292 N 
ATOM     74 HH11 ARG A   7      12.298   6.390  19.541  0.00  0.00    +0.255 HD
ATOM     75 HH12 ARG A   7      13.852   6.778  18.716  0.00  0.00    +0.255 HD
ENDBRANCH  66  67
ENDBRANCH  65  66
ENDBRANCH  64  65
ENDBRANCH  54  64
ENDBRANCH  51  54
ENDBRANCH  49  50
ENDBRANCH  47  49
ENDBRANCH   1  45
BRANCH   1  76
ATOM     76  CB  ARG A   5      14.517  -5.139  25.035  0.00  0.00    +0.033 C 
BRANCH  76  77
ATOM     77  CG  ARG A   5      14.608  -6.573  25.543  0.00  0.00    +0.045 C 
BRANCH  77  78
ATOM     78  CD  ARG A   5      14.727  -7.565  24.390  0.00  0.00    +0.174 C 
BRANCH  78  79
ATOM     79  NE  ARG A   5      14.369  -8.912  24.828  0.00  0.00    -0.265 N 
ATOM     80  HE  ARG A   5      14.333  -9.090  25.852  0.00  0.00    +0.259 HD
ATOM     81  CZ  ARG A   5      14.086  -9.927  24.019  0.00  0.00    +0.342 C 
ATOM     82  NH2 ARG A   5      13.766 -11.103  24.538  0.00  0.00    -0.292 N 
ATOM     83 HH21 ARG A   5      13.738 -11.225  25.570  0.00  0.00    +0.255 HD
ATOM     84 HH22 ARG A   5      13.543 -11.904  23.913  0.00  0.00    +0.255 HD
ATOM     85  NH1 ARG A   5      14.121  -9.777  22.701  0.00  0.00    -0.292 N 
ATOM     86 HH11 ARG A   5      14.372  -8.856  22.289  0.00  0.00    +0.255 HD
ATOM     87 HH12 ARG A   5      13.897 -10.581  22.080  0.00  0.00    +0.255 HD
ENDBRANCH  78  79
ENDBRANCH  77  78
ENDBRANCH  76  77
ENDBRANCH   1  76
TORSDOF 30
REMARK  Name = ../refined-set-2016/3ie3/3ie3_pocket.pdb
REMARK  134 active torsions:
REMARK  status: ('A' for Active; 'I' for Inactive)
REMARK    1  A    between atoms: _1  and  _3
REMARK    2  A    between atoms: _3  and  _4
REMARK    3  A    between atoms: _3  and  _6
REMARK    4  A    between atoms: _6  and  _7
REMARK    5  A    between atoms: _12  and  _13
REMARK    6  A    between atoms: _15  and  _17
REMARK    7  A    between atoms: _17  and  _18
REMARK    8  A    between atoms: _17  and  _20
REMARK    9  A    between atoms: _20  and  _21
REMARK   10  A    between atoms: _28  and  _29
REMARK   11  A    between atoms: _34  and  _36
REMARK   12  A    between atoms: _36  and  _37
REMARK   13  A    between atoms: _36  and  _39
REMARK   14  A    between atoms: _42  and  _44
REMARK   15  A    between atoms: _44  and  _45
REMARK   16  A    between atoms: _44  and  _47
REMARK   17  A    between atoms: _47  and  _48
REMARK   18  A    between atoms: _48  and  _49
REMARK   19  A    between atoms: _49  and  _50
REMARK   20  A    between atoms: _59  and  _61
REMARK   21  A    between atoms: _61  and  _62
REMARK   22  A    between atoms: _64  and  _66
REMARK   23  A    between atoms: _66  and  _67
REMARK   24  A    between atoms: _66  and  _69
REMARK   25  A    between atoms: _69  and  _70
REMARK   26  A    between atoms: _70  and  _71
REMARK   27  A    between atoms: _71  and  _72
REMARK   28  A    between atoms: _81  and  _83
REMARK   29  A    between atoms: _83  and  _84
REMARK   30  A    between atoms: _83  and  _86
REMARK   31  A    between atoms: _88  and  _90
REMARK   32  A    between atoms: _90  and  _91
REMARK   33  A    between atoms: _90  and  _93
REMARK   34  A    between atoms: _96  and  _98
REMARK   35  A    between atoms: _98  and  _99
REMARK   36  A    between atoms: _98  and  _101
REMARK   37  A    between atoms: _101  and  _102
REMARK   38  A    between atoms: _105  and  _107
REMARK   39  A    between atoms: _107  and  _108
REMARK   40  A    between atoms: _107  and  _110
REMARK   41  A    between atoms: _113  and  _115
REMARK   42  A    between atoms: _115  and  _116
REMARK   43  A    between atoms: _115  and  _118
REMARK   44  A    between atoms: _118  and  _119
REMARK   45  A    between atoms: _119  and  _120
REMARK   46  A    between atoms: _123  and  _125
REMARK   47  A    between atoms: _125  and  _126
REMARK   48  A    between atoms: _125  and  _128
REMARK   49  A    between atoms: _128  and  _129
REMARK   50  A    between atoms: _139  and  _141
REMARK   51  A    between atoms: _141  and  _142
REMARK   52  A    between atoms: _141  and  _144
REMARK   53  A    between atoms: _144  and  _145
REMARK   54  A    between atoms: _145  and  _146
REMARK   55  A    between atoms: _151  and  _153
REMARK   56  A    between atoms: _153  and  _154
REMARK   57  A    between atoms: _153  and  _156
REMARK   58  A    between atoms: _156  and  _157
REMARK   59  A    between atoms: _157  and  _158
REMARK   60  A    between atoms: _161  and  _163
REMARK   61  A    between atoms: _163  and  _164
REMARK   62  A    between atoms: _163  and  _166
REMARK   63  A    between atoms: _166  and  _167
REMARK   64  A    between atoms: _167  and  _168
REMARK   65  A    between atoms: _168  and  _169
REMARK   66  A    between atoms: _169  and  _170
REMARK   67  A    between atoms: _174  and  _176
REMARK   68  A    between atoms: _176  and  _177
REMARK   69  A    between atoms: _176  and  _179
REMARK   70  A    between atoms: _179  and  _180
REMARK   71  A    between atoms: _180  and  _181
REMARK   72  A    between atoms: _186  and  _188
REMARK   73  A    between atoms: _188  and  _189
REMARK   74  A    between atoms: _188  and  _191
REMARK   75  A    between atoms: _191  and  _192
REMARK   76  A    between atoms: _196  and  _197
REMARK   77  A    between atoms: _202  and  _204
REMARK   78  A    between atoms: _204  and  _205
REMARK   79  A    between atoms: _204  and  _207
REMARK   80  A    between atoms: _207  and  _208
REMARK   81  A    between atoms: _210  and  _212
REMARK   82  A    between atoms: _212  and  _213
REMARK   83  A    between atoms: _212  and  _215
REMARK   84  A    between atoms: _215  and  _216
REMARK   85  A    between atoms: _216  and  _217
REMARK   86  A    between atoms: _220  and  _222
REMARK   87  A    between atoms: _222  and  _223
REMARK   88  A    between atoms: _222  and  _225
REMARK   89  A    between atoms: _225  and  _226
REMARK   90  A    between atoms: _226  and  _227
REMARK   91  A    between atoms: _227  and  _228
REMARK   92  A    between atoms: _237  and  _239
REMARK   93  A    between atoms: _239  and  _240
REMARK   94  A    between atoms: _239  and  _242
REMARK   95  A    between atoms: _244  and  _246
REMARK   96  A    between atoms: _246  and  _247
REMARK   97  A    between atoms: _246  and  _249
REMARK   98  A    between atoms: _249  and  _250
REMARK   99  A    between atoms: _255  and  _256
REMARK  100  A    between atoms: _258  and  _260
REMARK  101  A    between atoms: _260  and  _261
REMARK  102  A    between atoms: _264  and  _266
REMARK  103  A    between atoms: _266  and  _267
REMARK  104  A    between atoms: _266  and  _269
REMARK  105  A    between atoms: _269  and  _270
REMARK  106  A    between atoms: _272  and  _274
REMARK  107  A    between atoms: _274  and  _275
REMARK  108  A    between atoms: _274  and  _277
REMARK  109  A    between atoms: _277  and  _278
REMARK  110  A    between atoms: _281  and  _283
REMARK  111  A    between atoms: _283  and  _284
REMARK  112  A    between atoms: _283  and  _286
REMARK  113  A    between atoms: _286  and  _287
REMARK  114  A    between atoms: _292  and  _293
REMARK  115  A    between atoms: _295  and  _297
REMARK  116  A    between atoms: _297  and  _298
REMARK  117  A    between atoms: _297  and  _300
REMARK  118  A    between atoms: _300  and  _301
REMARK  119  A    between atoms: _304  and  _306
REMARK  120  A    between atoms: _306  and  _307
REMARK  121  A    between atoms: _306  and  _309
REMARK  122  A    between atoms: _309  and  _310
REMARK  123  A    between atoms: _313  and  _315
REMARK  124  A    between atoms: _315  and  _316
REMARK  125  A    between atoms: _315  and  _318
REMARK  126  A    between atoms: _318  and  _319
REMARK  127  A    between atoms: _324  and  _326
REMARK  128  A    between atoms: _326  and  _327
REMARK  129  A    between atoms: _329  and  _331
REMARK  130  A    between atoms: _331  and  _332
REMARK  131  A    between atoms: _331  and  _334
REMARK  132  A    between atoms: _334  and  _335
REMARK  133  A    between atoms: _340  and  _342
REMARK  134  A    between atoms: _342  and  _343
REMARK                            x       y       z     vdW  Elec       q    Type
REMARK                         _______ _______ _______ _____ _____    ______ ____
ROOT
ATOM      1  C   THR A   2       6.676   0.696  37.190  0.00  0.00    +0.243 C 
ATOM      2  O   THR A   2       6.886   1.906  37.307  0.00  0.00    -0.273 OA
ATOM      3  N   VAL A   3       5.583   0.193  36.620  0.00  0.00    -0.297 N 
ATOM      4  H   VAL A   3       5.511  -0.838  36.506  0.00  0.00    +0.150 HD
ENDROOT
BRANCH   1   5
ATOM      5  CA  THR A   2       7.680  -0.323  37.717  0.00  0.00    +0.176 C 
BRANCH   5   7
ATOM      6  C   VAL A   1       9.841   0.518  36.946  0.00  0.00    +0.238 C 
ATOM      7  N   THR A   2       8.991   0.285  37.942  0.00  0.00    -0.295 N 
ATOM      8  H   THR A   2       9.267   0.543  38.911  0.00  0.00    +0.150 HD
ATOM      9  O   VAL A   1       9.597   0.244  35.771  0.00  0.00    -0.274 OA
BRANCH   6  10
ATOM     10  CA  VAL A   1      11.173   1.148  37.335  0.00  0.00    +0.145 C 
BRANCH  10  11
ATOM     11  CB  VAL A   1      11.345   2.512  36.626  0.00  0.00    +0.025 C 
ATOM     12  CG2 VAL A   1      10.207   3.463  36.997  0.00  0.00    +0.002 C 
ATOM     13  CG1 VAL A   1      12.692   3.124  36.981  0.00  0.00    +0.002 C 
ENDBRANCH  10  11
BRANCH  10  14
ATOM     14  N   VAL A   1      12.256   0.235  37.001  0.00  0.00    -0.238 NA
ATOM     15  H   VAL A   1      12.487   0.080  35.999  0.00  0.00    +0.142 HD
ENDBRANCH  10  14
ENDBRANCH   6  10
ENDBRANCH   5   7
BRANCH   5  16
ATOM     16  CB  THR A   2       7.109  -0.964  39.007  0.00  0.00    +0.137 C 
ATOM     17  CG2 THR A   2       8.031  -2.062  39.524  0.00  0.00    +0.034 C 
BRANCH  16  18
ATOM     18  OG1 THR A   2       6.948   0.042  40.015  0.00  0.00    -0.382 OA
ATOM     19  HG1 THR A   2       7.827   0.453  40.213  0.00  0.00    +0.210 HD
ENDBRANCH  16  18
ENDBRANCH   5  16
ENDBRANCH   1   5
BRANCH   3  20
ATOM     20  CA  VAL A   3       4.478   1.029  36.147  0.00  0.00    +0.149 C 
BRANCH  20  21
ATOM     21  C   VAL A   3       3.949   1.914  37.276  0.00  0.00    +0.241 C 
ATOM     22  N   GLU A   4       3.789   1.327  38.458  0.00  0.00    -0.298 N 
ATOM     23  H   GLU A   4       4.029   0.320  38.559  0.00  0.00    +0.150 HD
ATOM     24  O   VAL A   3       3.694   3.105  37.070  0.00  0.00    -0.273 OA
BRANCH  22  25
ATOM     25  CA  GLU A   4       3.287   2.055  39.616  0.00  0.00    +0.137 C 
BRANCH  25  26
ATOM     26  C   GLU A   4       4.218   3.201  39.994  0.00  0.00    +0.227 C 
ATOM     27  O   GLU A   4       3.783   4.344  40.134  0.00  0.00    -0.286 OA
ENDBRANCH  25  26
BRANCH  25  28
ATOM     28  CB  GLU A   4       3.108   1.109  40.806  0.00  0.00    +0.039 C 
BRANCH  28  29
ATOM     29  CG  GLU A   4       2.248  -0.108  40.507  0.00  0.00    +0.116 C 
BRANCH  29  30
ATOM     30  CD  GLU A   4       1.727  -0.776  41.764  0.00  0.00    +0.365 C 
ATOM     31  OE2 GLU A   4       2.427  -0.729  42.798  0.00  0.00    -0.246 OA
ATOM     32  OE1 GLU A   4       0.618  -1.349  41.719  0.00  0.00    -0.246 OA
ENDBRANCH  29  30
ENDBRANCH  28  29
ENDBRANCH  25  28
ENDBRANCH  22  25
ENDBRANCH  20  21
BRANCH  20  33
ATOM     33  CB  VAL A   3       3.324   0.166  35.558  0.00  0.00    +0.027 C 
ATOM     34  CG2 VAL A   3       2.143   1.037  35.136  0.00  0.00    +0.002 C 
ATOM     35  CG1 VAL A   3       3.821  -0.657  34.380  0.00  0.00    +0.002 C 
ENDBRANCH  20  33
ENDBRANCH   3  20
TORSDOF 15
REMARK  Name = ../refined-set-2016/3ie3/3ie3_pocket.pdb
REMARK  134 active torsions:
REMARK  status: ('A' for Active; 'I' for Inactive)
REMARK    1  A    between atoms: _1  and  _3
REMARK    2  A    between atoms: _3  and  _4
REMARK    3  A    between atoms: _3  and  _6
REMARK    4  A    between atoms: _6  and  _7
REMARK    5  A    between atoms: _12  and  _13
REMARK    6  A    between atoms: _15  and  _17
REMARK    7  A    between atoms: _17  and  _18
REMARK    8  A    between atoms: _17  and  _20
REMARK    9  A    between atoms: _20  and  _21
REMARK   10  A    between atoms: _28  and  _29
REMARK   11  A    between atoms: _34  and  _36
REMARK   12  A    between atoms: _36  and  _37
REMARK   13  A    between atoms: _36  and  _39
REMARK   14  A    between atoms: _42  and  _44
REMARK   15  A    between atoms: _44  and  _45
REMARK   16  A    between atoms: _44  and  _47
REMARK   17  A    between atoms: _47  and  _48
REMARK   18  A    between atoms: _48  and  _49
REMARK   19  A    between atoms: _49  and  _50
REMARK   20  A    between atoms: _59  and  _61
REMARK   21  A    between atoms: _61  and  _62
REMARK   22  A    between atoms: _64  and  _66
REMARK   23  A    between atoms: _66  and  _67
REMARK   24  A    between atoms: _66  and  _69
REMARK   25  A    between atoms: _69  and  _70
REMARK   26  A    between atoms: _70  and  _71
REMARK   27  A    between atoms: _71  and  _72
REMARK   28  A    between atoms: _81  and  _83
REMARK   29  A    between atoms: _83  and  _84
REMARK   30  A    between atoms: _83  and  _86
REMARK   31  A    between atoms: _88  and  _90
REMARK   32  A    between atoms: _90  and  _91
REMARK   33  A    between atoms: _90  and  _93
REMARK   34  A    between atoms: _96  and  _98
REMARK   35  A    between atoms: _98  and  _99
REMARK   36  A    between atoms: _98  and  _101
REMARK   37  A    between atoms: _101  and  _102
REMARK   38  A    between atoms: _105  and  _107
REMARK   39  A    between atoms: _107  and  _108
REMARK   40  A    between atoms: _107  and  _110
REMARK   41  A    between atoms: _113  and  _115
REMARK   42  A    between atoms: _115  and  _116
REMARK   43  A    between atoms: _115  and  _118
REMARK   44  A    between atoms: _118  and  _119
REMARK   45  A    between atoms: _119  and  _120
REMARK   46  A    between atoms: _123  and  _125
REMARK   47  A    between atoms: _125  and  _126
REMARK   48  A    between atoms: _125  and  _128
REMARK   49  A    between atoms: _128  and  _129
REMARK   50  A    between atoms: _139  and  _141
REMARK   51  A    between atoms: _141  and  _142
REMARK   52  A    between atoms: _141  and  _144
REMARK   53  A    between atoms: _144  and  _145
REMARK   54  A    between atoms: _145  and  _146
REMARK   55  A    between atoms: _151  and  _153
REMARK   56  A    between atoms: _153  and  _154
REMARK   57  A    between atoms: _153  and  _156
REMARK   58  A    between atoms: _156  and  _157
REMARK   59  A    between atoms: _157  and  _158
REMARK   60  A    between atoms: _161  and  _163
REMARK   61  A    between atoms: _163  and  _164
REMARK   62  A    between atoms: _163  and  _166
REMARK   63  A    between atoms: _166  and  _167
REMARK   64  A    between atoms: _167  and  _168
REMARK   65  A    between atoms: _168  and  _169
REMARK   66  A    between atoms: _169  and  _170
REMARK   67  A    between atoms: _174  and  _176
REMARK   68  A    between atoms: _176  and  _177
REMARK   69  A    between atoms: _176  and  _179
REMARK   70  A    between atoms: _179  and  _180
REMARK   71  A    between atoms: _180  and  _181
REMARK   72  A    between atoms: _186  and  _188
REMARK   73  A    between atoms: _188  and  _189
REMARK   74  A    between atoms: _188  and  _191
REMARK   75  A    between atoms: _191  and  _192
REMARK   76  A    between atoms: _196  and  _197
REMARK   77  A    between atoms: _202  and  _204
REMARK   78  A    between atoms: _204  and  _205
REMARK   79  A    between atoms: _204  and  _207
REMARK   80  A    between atoms: _207  and  _208
REMARK   81  A    between atoms: _210  and  _212
REMARK   82  A    between atoms: _212  and  _213
REMARK   83  A    between atoms: _212  and  _215
REMARK   84  A    between atoms: _215  and  _216
REMARK   85  A    between atoms: _216  and  _217
REMARK   86  A    between atoms: _220  and  _222
REMARK   87  A    between atoms: _222  and  _223
REMARK   88  A    between atoms: _222  and  _225
REMARK   89  A    between atoms: _225  and  _226
REMARK   90  A    between atoms: _226  and  _227
REMARK   91  A    between atoms: _227  and  _228
REMARK   92  A    between atoms: _237  and  _239
REMARK   93  A    between atoms: _239  and  _240
REMARK   94  A    between atoms: _239  and  _242
REMARK   95  A    between atoms: _244  and  _246
REMARK   96  A    between atoms: _246  and  _247
REMARK   97  A    between atoms: _246  and  _249
REMARK   98  A    between atoms: _249  and  _250
REMARK   99  A    between atoms: _255  and  _256
REMARK  100  A    between atoms: _258  and  _260
REMARK  101  A    between atoms: _260  and  _261
REMARK  102  A    between atoms: _264  and  _266
REMARK  103  A    between atoms: _266  and  _267
REMARK  104  A    between atoms: _266  and  _269
REMARK  105  A    between atoms: _269  and  _270
REMARK  106  A    between atoms: _272  and  _274
REMARK  107  A    between atoms: _274  and  _275
REMARK  108  A    between atoms: _274  and  _277
REMARK  109  A    between atoms: _277  and  _278
REMARK  110  A    between atoms: _281  and  _283
REMARK  111  A    between atoms: _283  and  _284
REMARK  112  A    between atoms: _283  and  _286
REMARK  113  A    between atoms: _286  and  _287
REMARK  114  A    between atoms: _292  and  _293
REMARK  115  A    between atoms: _295  and  _297
REMARK  116  A    between atoms: _297  and  _298
REMARK  117  A    between atoms: _297  and  _300
REMARK  118  A    between atoms: _300  and  _301
REMARK  119  A    between atoms: _304  and  _306
REMARK  120  A    between atoms: _306  and  _307
REMARK  121  A    between atoms: _306  and  _309
REMARK  122  A    between atoms: _309  and  _310
REMARK  123  A    between atoms: _313  and  _315
REMARK  124  A    between atoms: _315  and  _316
REMARK  125  A    between atoms: _315  and  _318
REMARK  126  A    between atoms: _318  and  _319
REMARK  127  A    between atoms: _324  and  _326
REMARK  128  A    between atoms: _326  and  _327
REMARK  129  A    between atoms: _329  and  _331
REMARK  130  A    between atoms: _331  and  _332
REMARK  131  A    between atoms: _331  and  _334
REMARK  132  A    between atoms: _334  and  _335
REMARK  133  A    between atoms: _340  and  _342
REMARK  134  A    between atoms: _342  and  _343
REMARK                            x       y       z     vdW  Elec       q    Type
REMARK                         _______ _______ _______ _____ _____    ______ ____
ROOT
ATOM      1  CA  GLN A   2       2.645   6.691  37.705  0.00  0.00    +0.149 C 
ENDROOT
BRANCH   1   3
ATOM      2  C   TRP A   1       5.070   6.639  37.328  0.00  0.00    +0.239 C 
ATOM      3  N   GLN A   2       3.930   5.993  37.578  0.00  0.00    -0.297 N 
ATOM      4  H   GLN A   2       3.952   4.959  37.687  0.00  0.00    +0.150 HD
ATOM      5  O   TRP A   1       5.139   7.864  37.194  0.00  0.00    -0.274 OA
BRANCH   2   6
ATOM      6  CA  TRP A   1       6.329   5.777  37.230  0.00  0.00    +0.149 C 
BRANCH   6   7
ATOM      7  N   TRP A   1       6.367   4.752  38.271  0.00  0.00    -0.238 NA
ATOM      8  H   TRP A   1       6.289   3.751  38.001  0.00  0.00    +0.142 HD
ENDBRANCH   6   7
BRANCH   6   9
ATOM      9  CB  TRP A   1       6.445   5.150  35.841  0.00  0.00    +0.054 C 
BRANCH   9  10
ATOM     10  CG  TRP A   1       6.725   6.158  34.759  0.00  0.00    -0.002 A 
ATOM     11  CD2 TRP A   1       7.933   6.908  34.573  0.00  0.00    +0.013 A 
ATOM     12  CE3 TRP A   1       9.159   6.966  35.254  0.00  0.00    +0.001 A 
ATOM     13  CZ3 TRP A   1      10.143   7.831  34.785  0.00  0.00    +0.000 A 
ATOM     14  CH2 TRP A   1       9.923   8.635  33.652  0.00  0.00    +0.001 A 
ATOM     15  CZ2 TRP A   1       8.735   8.600  32.969  0.00  0.00    +0.017 A 
ATOM     16  CE2 TRP A   1       7.743   7.731  33.440  0.00  0.00    +0.056 A 
ATOM     17  NE1 TRP A   1       6.481   7.491  32.967  0.00  0.00    -0.352 N 
ATOM     18  HE1 TRP A   1       6.050   7.949  32.139  0.00  0.00    +0.166 HD
ATOM     19  CD1 TRP A   1       5.876   6.548  33.763  0.00  0.00    +0.068 A 
ENDBRANCH   9  10
ENDBRANCH   6   9
ENDBRANCH   2   6
ENDBRANCH   1   3
BRANCH   1  20
ATOM     20  C   GLN A   2       2.548   7.566  38.958  0.00  0.00    +0.241 C 
ATOM     21  N   GLU A   3       3.309   7.213  39.995  0.00  0.00    -0.298 N 
ATOM     22  H   GLU A   3       3.852   6.328  39.938  0.00  0.00    +0.150 HD
ATOM     23  O   GLN A   2       1.798   8.545  38.975  0.00  0.00    -0.273 OA
BRANCH  21  24
ATOM     24  CA  GLU A   3       3.409   8.026  41.213  0.00  0.00    +0.137 C 
BRANCH  24  25
ATOM     25  C   GLU A   3       3.868   9.455  40.889  0.00  0.00    +0.227 C 
ATOM     26  O   GLU A   3       3.354  10.420  41.459  0.00  0.00    -0.286 OA
ENDBRANCH  24  25
BRANCH  24  27
ATOM     27  CB  GLU A   3       4.336   7.357  42.236  0.00  0.00    +0.039 C 
BRANCH  27  28
ATOM     28  CG  GLU A   3       4.272   7.950  43.647  0.00  0.00    +0.116 C 
BRANCH  28  29
ATOM     29  CD  GLU A   3       5.221   9.123  43.845  0.00  0.00    +0.365 C 
ATOM     30  OE2 GLU A   3       5.014   9.907  44.795  0.00  0.00    -0.246 OA
ATOM     31  OE1 GLU A   3       6.181   9.256  43.057  0.00  0.00    -0.246 OA
ENDBRANCH  28  29
ENDBRANCH  27  28
ENDBRANCH  24  27
ENDBRANCH  21  24
ENDBRANCH   1  20
BRANCH   1  32
ATOM     32  CB  GLN A   2       1.479   5.700  37.644  0.00  0.00    +0.039 C 
BRANCH  32  33
ATOM     33  CG  GLN A   2       1.213   5.153  36.246  0.00  0.00    +0.087 C 
BRANCH  33  34
ATOM     34  CD  GLN A   2       0.111   4.105  36.206  0.00  0.00    +0.219 C 
ATOM     35  OE1 GLN A   2      -0.346   3.616  37.243  0.00  0.00    -0.275 OA
ATOM     36  NE2 GLN A   2      -0.319   3.753  35.000  0.00  0.00    -0.329 N 
ATOM     37 HE21 GLN A   2      -1.069   3.039  34.903  0.00  0.00    +0.145 HD
ATOM     38 HE22 GLN A   2       0.095   4.191  34.152  0.00  0.00    +0.145 HD
ENDBRANCH  33  34
ENDBRANCH  32  33
ENDBRANCH   1  32
TORSDOF 14
REMARK  Name = ../refined-set-2016/3ie3/3ie3_pocket.pdb
REMARK  134 active torsions:
REMARK  status: ('A' for Active; 'I' for Inactive)
REMARK    1  A    between atoms: _1  and  _3
REMARK    2  A    between atoms: _3  and  _4
REMARK    3  A    between atoms: _3  and  _6
REMARK    4  A    between atoms: _6  and  _7
REMARK    5  A    between atoms: _12  and  _13
REMARK    6  A    between atoms: _15  and  _17
REMARK    7  A    between atoms: _17  and  _18
REMARK    8  A    between atoms: _17  and  _20
REMARK    9  A    between atoms: _20  and  _21
REMARK   10  A    between atoms: _28  and  _29
REMARK   11  A    between atoms: _34  and  _36
REMARK   12  A    between atoms: _36  and  _37
REMARK   13  A    between atoms: _36  and  _39
REMARK   14  A    between atoms: _42  and  _44
REMARK   15  A    between atoms: _44  and  _45
REMARK   16  A    between atoms: _44  and  _47
REMARK   17  A    between atoms: _47  and  _48
REMARK   18  A    between atoms: _48  and  _49
REMARK   19  A    between atoms: _49  and  _50
REMARK   20  A    between atoms: _59  and  _61
REMARK   21  A    between atoms: _61  and  _62
REMARK   22  A    between atoms: _64  and  _66
REMARK   23  A    between atoms: _66  and  _67
REMARK   24  A    between atoms: _66  and  _69
REMARK   25  A    between atoms: _69  and  _70
REMARK   26  A    between atoms: _70  and  _71
REMARK   27  A    between atoms: _71  and  _72
REMARK   28  A    between atoms: _81  and  _83
REMARK   29  A    between atoms: _83  and  _84
REMARK   30  A    between atoms: _83  and  _86
REMARK   31  A    between atoms: _88  and  _90
REMARK   32  A    between atoms: _90  and  _91
REMARK   33  A    between atoms: _90  and  _93
REMARK   34  A    between atoms: _96  and  _98
REMARK   35  A    between atoms: _98  and  _99
REMARK   36  A    between atoms: _98  and  _101
REMARK   37  A    between atoms: _101  and  _102
REMARK   38  A    between atoms: _105  and  _107
REMARK   39  A    between atoms: _107  and  _108
REMARK   40  A    between atoms: _107  and  _110
REMARK   41  A    between atoms: _113  and  _115
REMARK   42  A    between atoms: _115  and  _116
REMARK   43  A    between atoms: _115  and  _118
REMARK   44  A    between atoms: _118  and  _119
REMARK   45  A    between atoms: _119  and  _120
REMARK   46  A    between atoms: _123  and  _125
REMARK   47  A    between atoms: _125  and  _126
REMARK   48  A    between atoms: _125  and  _128
REMARK   49  A    between atoms: _128  and  _129
REMARK   50  A    between atoms: _139  and  _141
REMARK   51  A    between atoms: _141  and  _142
REMARK   52  A    between atoms: _141  and  _144
REMARK   53  A    between atoms: _144  and  _145
REMARK   54  A    between atoms: _145  and  _146
REMARK   55  A    between atoms: _151  and  _153
REMARK   56  A    between atoms: _153  and  _154
REMARK   57  A    between atoms: _153  and  _156
REMARK   58  A    between atoms: _156  and  _157
REMARK   59  A    between atoms: _157  and  _158
REMARK   60  A    between atoms: _161  and  _163
REMARK   61  A    between atoms: _163  and  _164
REMARK   62  A    between atoms: _163  and  _166
REMARK   63  A    between atoms: _166  and  _167
REMARK   64  A    between atoms: _167  and  _168
REMARK   65  A    between atoms: _168  and  _169
REMARK   66  A    between atoms: _169  and  _170
REMARK   67  A    between atoms: _174  and  _176
REMARK   68  A    between atoms: _176  and  _177
REMARK   69  A    between atoms: _176  and  _179
REMARK   70  A    between atoms: _179  and  _180
REMARK   71  A    between atoms: _180  and  _181
REMARK   72  A    between atoms: _186  and  _188
REMARK   73  A    between atoms: _188  and  _189
REMARK   74  A    between atoms: _188  and  _191
REMARK   75  A    between atoms: _191  and  _192
REMARK   76  A    between atoms: _196  and  _197
REMARK   77  A    between atoms: _202  and  _204
REMARK   78  A    between atoms: _204  and  _205
REMARK   79  A    between atoms: _204  and  _207
REMARK   80  A    between atoms: _207  and  _208
REMARK   81  A    between atoms: _210  and  _212
REMARK   82  A    between atoms: _212  and  _213
REMARK   83  A    between atoms: _212  and  _215
REMARK   84  A    between atoms: _215  and  _216
REMARK   85  A    between atoms: _216  and  _217
REMARK   86  A    between atoms: _220  and  _222
REMARK   87  A    between atoms: _222  and  _223
REMARK   88  A    between atoms: _222  and  _225
REMARK   89  A    between atoms: _225  and  _226
REMARK   90  A    between atoms: _226  and  _227
REMARK   91  A    between atoms: _227  and  _228
REMARK   92  A    between atoms: _237  and  _239
REMARK   93  A    between atoms: _239  and  _240
REMARK   94  A    between atoms: _239  and  _242
REMARK   95  A    between atoms: _244  and  _246
REMARK   96  A    between atoms: _246  and  _247
REMARK   97  A    between atoms: _246  and  _249
REMARK   98  A    between atoms: _249  and  _250
REMARK   99  A    between atoms: _255  and  _256
REMARK  100  A    between atoms: _258  and  _260
REMARK  101  A    between atoms: _260  and  _261
REMARK  102  A    between atoms: _264  and  _266
REMARK  103  A    between atoms: _266  and  _267
REMARK  104  A    between atoms: _266  and  _269
REMARK  105  A    between atoms: _269  and  _270
REMARK  106  A    between atoms: _272  and  _274
REMARK  107  A    between atoms: _274  and  _275
REMARK  108  A    between atoms: _274  and  _277
REMARK  109  A    between atoms: _277  and  _278
REMARK  110  A    between atoms: _281  and  _283
REMARK  111  A    between atoms: _283  and  _284
REMARK  112  A    between atoms: _283  and  _286
REMARK  113  A    between atoms: _286  and  _287
REMARK  114  A    between atoms: _292  and  _293
REMARK  115  A    between atoms: _295  and  _297
REMARK  116  A    between atoms: _297  and  _298
REMARK  117  A    between atoms: _297  and  _300
REMARK  118  A    between atoms: _300  and  _301
REMARK  119  A    between atoms: _304  and  _306
REMARK  120  A    between atoms: _306  and  _307
REMARK  121  A    between atoms: _306  and  _309
REMARK  122  A    between atoms: _309  and  _310
REMARK  123  A    between atoms: _313  and  _315
REMARK  124  A    between atoms: _315  and  _316
REMARK  125  A    between atoms: _315  and  _318
REMARK  126  A    between atoms: _318  and  _319
REMARK  127  A    between atoms: _324  and  _326
REMARK  128  A    between atoms: _326  and  _327
REMARK  129  A    between atoms: _329  and  _331
REMARK  130  A    between atoms: _331  and  _332
REMARK  131  A    between atoms: _331  and  _334
REMARK  132  A    between atoms: _334  and  _335
REMARK  133  A    between atoms: _340  and  _342
REMARK  134  A    between atoms: _342  and  _343
REMARK                            x       y       z     vdW  Elec       q    Type
REMARK                         _______ _______ _______ _____ _____    ______ ____
ROOT
ATOM      1  CG  LYS A   1       7.518  11.655  34.383  0.00  0.00    -0.000 C 
ENDROOT
BRANCH   1   2
ATOM      2  CB  LYS A   1       7.882  10.987  35.709  0.00  0.00    +0.025 C 
BRANCH   2   3
ATOM      3  CA  LYS A   1       9.323  11.249  36.172  0.00  0.00    +0.133 C 
BRANCH   3   4
ATOM      4  N   LYS A   1       9.581  10.608  37.464  0.00  0.00    -0.239 NA
ATOM      5  H   LYS A   1       8.816  10.069  37.917  0.00  0.00    +0.142 HD
ENDBRANCH   3   4
BRANCH   3   6
ATOM      6  C   LYS A   1       9.611  12.751  36.214  0.00  0.00    +0.224 C 
ATOM      7  O   LYS A   1      10.279  13.284  35.327  0.00  0.00    -0.287 OA
ENDBRANCH   3   6
ENDBRANCH   2   3
ENDBRANCH   1   2
BRANCH   1   8
ATOM      8  CD  LYS A   1       6.138  11.240  33.893  0.00  0.00    -0.024 C 
BRANCH   8   9
ATOM      9  CE  LYS A   1       5.712  12.040  32.662  0.00  0.00    -0.086 C 
BRANCH   9  10
ATOM     10  NZ  LYS A   1       6.499  11.702  31.437  0.00  0.00    +0.380 N 
ATOM     11  HZ1 LYS A   1       7.506  11.900  31.608  0.00  0.00    -0.089 HD
ATOM     12  HZ2 LYS A   1       6.376  10.694  31.215  0.00  0.00    -0.089 HD
ATOM     13  HZ3 LYS A   1       6.161  12.278  30.640  0.00  0.00    -0.089 HD
ENDBRANCH   9  10
ENDBRANCH   8   9
ENDBRANCH   1   8
TORSDOF 7
REMARK  Name = ../refined-set-2016/3ie3/3ie3_pocket.pdb
REMARK  134 active torsions:
REMARK  status: ('A' for Active; 'I' for Inactive)
REMARK    1  A    between atoms: _1  and  _3
REMARK    2  A    between atoms: _3  and  _4
REMARK    3  A    between atoms: _3  and  _6
REMARK    4  A    between atoms: _6  and  _7
REMARK    5  A    between atoms: _12  and  _13
REMARK    6  A    between atoms: _15  and  _17
REMARK    7  A    between atoms: _17  and  _18
REMARK    8  A    between atoms: _17  and  _20
REMARK    9  A    between atoms: _20  and  _21
REMARK   10  A    between atoms: _28  and  _29
REMARK   11  A    between atoms: _34  and  _36
REMARK   12  A    between atoms: _36  and  _37
REMARK   13  A    between atoms: _36  and  _39
REMARK   14  A    between atoms: _42  and  _44
REMARK   15  A    between atoms: _44  and  _45
REMARK   16  A    between atoms: _44  and  _47
REMARK   17  A    between atoms: _47  and  _48
REMARK   18  A    between atoms: _48  and  _49
REMARK   19  A    between atoms: _49  and  _50
REMARK   20  A    between atoms: _59  and  _61
REMARK   21  A    between atoms: _61  and  _62
REMARK   22  A    between atoms: _64  and  _66
REMARK   23  A    between atoms: _66  and  _67
REMARK   24  A    between atoms: _66  and  _69
REMARK   25  A    between atoms: _69  and  _70
REMARK   26  A    between atoms: _70  and  _71
REMARK   27  A    between atoms: _71  and  _72
REMARK   28  A    between atoms: _81  and  _83
REMARK   29  A    between atoms: _83  and  _84
REMARK   30  A    between atoms: _83  and  _86
REMARK   31  A    between atoms: _88  and  _90
REMARK   32  A    between atoms: _90  and  _91
REMARK   33  A    between atoms: _90  and  _93
REMARK   34  A    between atoms: _96  and  _98
REMARK   35  A    between atoms: _98  and  _99
REMARK   36  A    between atoms: _98  and  _101
REMARK   37  A    between atoms: _101  and  _102
REMARK   38  A    between atoms: _105  and  _107
REMARK   39  A    between atoms: _107  and  _108
REMARK   40  A    between atoms: _107  and  _110
REMARK   41  A    between atoms: _113  and  _115
REMARK   42  A    between atoms: _115  and  _116
REMARK   43  A    between atoms: _115  and  _118
REMARK   44  A    between atoms: _118  and  _119
REMARK   45  A    between atoms: _119  and  _120
REMARK   46  A    between atoms: _123  and  _125
REMARK   47  A    between atoms: _125  and  _126
REMARK   48  A    between atoms: _125  and  _128
REMARK   49  A    between atoms: _128  and  _129
REMARK   50  A    between atoms: _139  and  _141
REMARK   51  A    between atoms: _141  and  _142
REMARK   52  A    between atoms: _141  and  _144
REMARK   53  A    between atoms: _144  and  _145
REMARK   54  A    between atoms: _145  and  _146
REMARK   55  A    between atoms: _151  and  _153
REMARK   56  A    between atoms: _153  and  _154
REMARK   57  A    between atoms: _153  and  _156
REMARK   58  A    between atoms: _156  and  _157
REMARK   59  A    between atoms: _157  and  _158
REMARK   60  A    between atoms: _161  and  _163
REMARK   61  A    between atoms: _163  and  _164
REMARK   62  A    between atoms: _163  and  _166
REMARK   63  A    between atoms: _166  and  _167
REMARK   64  A    between atoms: _167  and  _168
REMARK   65  A    between atoms: _168  and  _169
REMARK   66  A    between atoms: _169  and  _170
REMARK   67  A    between atoms: _174  and  _176
REMARK   68  A    between atoms: _176  and  _177
REMARK   69  A    between atoms: _176  and  _179
REMARK   70  A    between atoms: _179  and  _180
REMARK   71  A    between atoms: _180  and  _181
REMARK   72  A    between atoms: _186  and  _188
REMARK   73  A    between atoms: _188  and  _189
REMARK   74  A    between atoms: _188  and  _191
REMARK   75  A    between atoms: _191  and  _192
REMARK   76  A    between atoms: _196  and  _197
REMARK   77  A    between atoms: _202  and  _204
REMARK   78  A    between atoms: _204  and  _205
REMARK   79  A    between atoms: _204  and  _207
REMARK   80  A    between atoms: _207  and  _208
REMARK   81  A    between atoms: _210  and  _212
REMARK   82  A    between atoms: _212  and  _213
REMARK   83  A    between atoms: _212  and  _215
REMARK   84  A    between atoms: _215  and  _216
REMARK   85  A    between atoms: _216  and  _217
REMARK   86  A    between atoms: _220  and  _222
REMARK   87  A    between atoms: _222  and  _223
REMARK   88  A    between atoms: _222  and  _225
REMARK   89  A    between atoms: _225  and  _226
REMARK   90  A    between atoms: _226  and  _227
REMARK   91  A    between atoms: _227  and  _228
REMARK   92  A    between atoms: _237  and  _239
REMARK   93  A    between atoms: _239  and  _240
REMARK   94  A    between atoms: _239  and  _242
REMARK   95  A    between atoms: _244  and  _246
REMARK   96  A    between atoms: _246  and  _247
REMARK   97  A    between atoms: _246  and  _249
REMARK   98  A    between atoms: _249  and  _250
REMARK   99  A    between atoms: _255  and  _256
REMARK  100  A    between atoms: _258  and  _260
REMARK  101  A    between atoms: _260  and  _261
REMARK  102  A    between atoms: _264  and  _266
REMARK  103  A    between atoms: _266  and  _267
REMARK  104  A    between atoms: _266  and  _269
REMARK  105  A    between atoms: _269  and  _270
REMARK  106  A    between atoms: _272  and  _274
REMARK  107  A    between atoms: _274  and  _275
REMARK  108  A    between atoms: _274  and  _277
REMARK  109  A    between atoms: _277  and  _278
REMARK  110  A    between atoms: _281  and  _283
REMARK  111  A    between atoms: _283  and  _284
REMARK  112  A    between atoms: _283  and  _286
REMARK  113  A    between atoms: _286  and  _287
REMARK  114  A    between atoms: _292  and  _293
REMARK  115  A    between atoms: _295  and  _297
REMARK  116  A    between atoms: _297  and  _298
REMARK  117  A    between atoms: _297  and  _300
REMARK  118  A    between atoms: _300  and  _301
REMARK  119  A    between atoms: _304  and  _306
REMARK  120  A    between atoms: _306  and  _307
REMARK  121  A    between atoms: _306  and  _309
REMARK  122  A    between atoms: _309  and  _310
REMARK  123  A    between atoms: _313  and  _315
REMARK  124  A    between atoms: _315  and  _316
REMARK  125  A    between atoms: _315  and  _318
REMARK  126  A    between atoms: _318  and  _319
REMARK  127  A    between atoms: _324  and  _326
REMARK  128  A    between atoms: _326  and  _327
REMARK  129  A    between atoms: _329  and  _331
REMARK  130  A    between atoms: _331  and  _332
REMARK  131  A    between atoms: _331  and  _334
REMARK  132  A    between atoms: _334  and  _335
REMARK  133  A    between atoms: _340  and  _342
REMARK  134  A    between atoms: _342  and  _343
REMARK                            x       y       z     vdW  Elec       q    Type
REMARK                         _______ _______ _______ _____ _____    ______ ____
ROOT
ATOM      1  C   GLN A   1      12.687   9.305  30.736  0.00  0.00    +0.238 C 
ATOM      2  O   GLN A   1      13.660   9.818  31.295  0.00  0.00    -0.274 OA
ATOM      3  N   LEU A   2      12.603   8.008  30.445  0.00  0.00    -0.297 N 
ATOM      4  H   LEU A   2      11.704   7.645  30.068  0.00  0.00    +0.150 HD
ENDROOT
BRANCH   1   5
ATOM      5  CA  GLN A   1      11.469  10.142  30.343  0.00  0.00    +0.145 C 
BRANCH   5   6
ATOM      6  N   GLN A   1      11.444  11.459  30.973  0.00  0.00    -0.238 NA
ATOM      7  H   GLN A   1      12.335  11.984  31.082  0.00  0.00    +0.142 HD
ENDBRANCH   5   6
BRANCH   5   8
ATOM      8  CB  GLN A   1      11.393  10.275  28.814  0.00  0.00    +0.036 C 
BRANCH   8   9
ATOM      9  CG  GLN A   1      10.055  10.808  28.289  0.00  0.00    +0.087 C 
BRANCH   9  10
ATOM     10  CD  GLN A   1       9.866  10.587  26.799  0.00  0.00    +0.219 C 
ATOM     11  NE2 GLN A   1       8.715  10.036  26.428  0.00  0.00    -0.329 N 
ATOM     12 HE21 GLN A   1       8.009   9.773  27.145  0.00  0.00    +0.145 HD
ATOM     13 HE22 GLN A   1       8.520   9.868  25.420  0.00  0.00    +0.145 HD
ATOM     14  OE1 GLN A   1      10.736  10.917  25.989  0.00  0.00    -0.275 OA
ENDBRANCH   9  10
ENDBRANCH   8   9
ENDBRANCH   5   8
ENDBRANCH   1   5
BRANCH   3  15
ATOM     15  CA  LEU A   2      13.707   7.068  30.627  0.00  0.00    +0.149 C 
BRANCH  15  16
ATOM     16  C   LEU A   2      14.153   6.576  29.243  0.00  0.00    +0.244 C 
ATOM     17  N   PRO A   3      15.376   6.018  29.125  0.00  0.00    -0.273 N 
ATOM     18  CA  PRO A   3      16.359   5.687  30.164  0.00  0.00    +0.140 C 
ATOM     19  CB  PRO A   3      17.412   4.874  29.406  0.00  0.00    +0.030 C 
ATOM     20  CG  PRO A   3      17.318   5.349  28.011  0.00  0.00    +0.024 C 
ATOM     21  CD  PRO A   3      15.864   5.643  27.784  0.00  0.00    +0.094 C 
ATOM     22  O   LEU A   2      13.387   6.681  28.284  0.00  0.00    -0.273 OA
BRANCH  18  23
ATOM     23  C   PRO A   3      17.039   6.864  30.845  0.00  0.00    +0.227 C 
ATOM     24  O   PRO A   3      17.196   7.943  30.258  0.00  0.00    -0.286 OA
ENDBRANCH  18  23
ENDBRANCH  15  16
BRANCH  15  25
ATOM     25  CB  LEU A   2      13.266   5.893  31.512  0.00  0.00    +0.029 C 
BRANCH  25  26
ATOM     26  CG  LEU A   2      12.830   6.196  32.955  0.00  0.00    +0.002 C 
ATOM     27  CD2 LEU A   2      13.936   6.905  33.746  0.00  0.00    +0.000 C 
ATOM     28  CD1 LEU A   2      12.393   4.917  33.663  0.00  0.00    +0.000 C 
ENDBRANCH  25  26
ENDBRANCH  15  25
ENDBRANCH   3  15
TORSDOF 10
REMARK  Name = ../refined-set-2016/3ie3/3ie3_pocket.pdb
REMARK  134 active torsions:
REMARK  status: ('A' for Active; 'I' for Inactive)
REMARK    1  A    between atoms: _1  and  _3
REMARK    2  A    between atoms: _3  and  _4
REMARK    3  A    between atoms: _3  and  _6
REMARK    4  A    between atoms: _6  and  _7
REMARK    5  A    between atoms: _12  and  _13
REMARK    6  A    between atoms: _15  and  _17
REMARK    7  A    between atoms: _17  and  _18
REMARK    8  A    between atoms: _17  and  _20
REMARK    9  A    between atoms: _20  and  _21
REMARK   10  A    between atoms: _28  and  _29
REMARK   11  A    between atoms: _34  and  _36
REMARK   12  A    between atoms: _36  and  _37
REMARK   13  A    between atoms: _36  and  _39
REMARK   14  A    between atoms: _42  and  _44
REMARK   15  A    between atoms: _44  and  _45
REMARK   16  A    between atoms: _44  and  _47
REMARK   17  A    between atoms: _47  and  _48
REMARK   18  A    between atoms: _48  and  _49
REMARK   19  A    between atoms: _49  and  _50
REMARK   20  A    between atoms: _59  and  _61
REMARK   21  A    between atoms: _61  and  _62
REMARK   22  A    between atoms: _64  and  _66
REMARK   23  A    between atoms: _66  and  _67
REMARK   24  A    between atoms: _66  and  _69
REMARK   25  A    between atoms: _69  and  _70
REMARK   26  A    between atoms: _70  and  _71
REMARK   27  A    between atoms: _71  and  _72
REMARK   28  A    between atoms: _81  and  _83
REMARK   29  A    between atoms: _83  and  _84
REMARK   30  A    between atoms: _83  and  _86
REMARK   31  A    between atoms: _88  and  _90
REMARK   32  A    between atoms: _90  and  _91
REMARK   33  A    between atoms: _90  and  _93
REMARK   34  A    between atoms: _96  and  _98
REMARK   35  A    between atoms: _98  and  _99
REMARK   36  A    between atoms: _98  and  _101
REMARK   37  A    between atoms: _101  and  _102
REMARK   38  A    between atoms: _105  and  _107
REMARK   39  A    between atoms: _107  and  _108
REMARK   40  A    between atoms: _107  and  _110
REMARK   41  A    between atoms: _113  and  _115
REMARK   42  A    between atoms: _115  and  _116
REMARK   43  A    between atoms: _115  and  _118
REMARK   44  A    between atoms: _118  and  _119
REMARK   45  A    between atoms: _119  and  _120
REMARK   46  A    between atoms: _123  and  _125
REMARK   47  A    between atoms: _125  and  _126
REMARK   48  A    between atoms: _125  and  _128
REMARK   49  A    between atoms: _128  and  _129
REMARK   50  A    between atoms: _139  and  _141
REMARK   51  A    between atoms: _141  and  _142
REMARK   52  A    between atoms: _141  and  _144
REMARK   53  A    between atoms: _144  and  _145
REMARK   54  A    between atoms: _145  and  _146
REMARK   55  A    between atoms: _151  and  _153
REMARK   56  A    between atoms: _153  and  _154
REMARK   57  A    between atoms: _153  and  _156
REMARK   58  A    between atoms: _156  and  _157
REMARK   59  A    between atoms: _157  and  _158
REMARK   60  A    between atoms: _161  and  _163
REMARK   61  A    between atoms: _163  and  _164
REMARK   62  A    between atoms: _163  and  _166
REMARK   63  A    between atoms: _166  and  _167
REMARK   64  A    between atoms: _167  and  _168
REMARK   65  A    between atoms: _168  and  _169
REMARK   66  A    between atoms: _169  and  _170
REMARK   67  A    between atoms: _174  and  _176
REMARK   68  A    between atoms: _176  and  _177
REMARK   69  A    between atoms: _176  and  _179
REMARK   70  A    between atoms: _179  and  _180
REMARK   71  A    between atoms: _180  and  _181
REMARK   72  A    between atoms: _186  and  _188
REMARK   73  A    between atoms: _188  and  _189
REMARK   74  A    between atoms: _188  and  _191
REMARK   75  A    between atoms: _191  and  _192
REMARK   76  A    between atoms: _196  and  _197
REMARK   77  A    between atoms: _202  and  _204
REMARK   78  A    between atoms: _204  and  _205
REMARK   79  A    between atoms: _204  and  _207
REMARK   80  A    between atoms: _207  and  _208
REMARK   81  A    between atoms: _210  and  _212
REMARK   82  A    between atoms: _212  and  _213
REMARK   83  A    between atoms: _212  and  _215
REMARK   84  A    between atoms: _215  and  _216
REMARK   85  A    between atoms: _216  and  _217
REMARK   86  A    between atoms: _220  and  _222
REMARK   87  A    between atoms: _222  and  _223
REMARK   88  A    between atoms: _222  and  _225
REMARK   89  A    between atoms: _225  and  _226
REMARK   90  A    between atoms: _226  and  _227
REMARK   91  A    between atoms: _227  and  _228
REMARK   92  A    between atoms: _237  and  _239
REMARK   93  A    between atoms: _239  and  _240
REMARK   94  A    between atoms: _239  and  _242
REMARK   95  A    between atoms: _244  and  _246
REMARK   96  A    between atoms: _246  and  _247
REMARK   97  A    between atoms: _246  and  _249
REMARK   98  A    between atoms: _249  and  _250
REMARK   99  A    between atoms: _255  and  _256
REMARK  100  A    between atoms: _258  and  _260
REMARK  101  A    between atoms: _260  and  _261
REMARK  102  A    between atoms: _264  and  _266
REMARK  103  A    between atoms: _266  and  _267
REMARK  104  A    between atoms: _266  and  _269
REMARK  105  A    between atoms: _269  and  _270
REMARK  106  A    between atoms: _272  and  _274
REMARK  107  A    between atoms: _274  and  _275
REMARK  108  A    between atoms: _274  and  _277
REMARK  109  A    between atoms: _277  and  _278
REMARK  110  A    between atoms: _281  and  _283
REMARK  111  A    between atoms: _283  and  _284
REMARK  112  A    between atoms: _283  and  _286
REMARK  113  A    between atoms: _286  and  _287
REMARK  114  A    between atoms: _292  and  _293
REMARK  115  A    between atoms: _295  and  _297
REMARK  116  A    between atoms: _297  and  _298
REMARK  117  A    between atoms: _297  and  _300
REMARK  118  A    between atoms: _300  and  _301
REMARK  119  A    between atoms: _304  and  _306
REMARK  120  A    between atoms: _306  and  _307
REMARK  121  A    between atoms: _306  and  _309
REMARK  122  A    between atoms: _309  and  _310
REMARK  123  A    between atoms: _313  and  _315
REMARK  124  A    between atoms: _315  and  _316
REMARK  125  A    between atoms: _315  and  _318
REMARK  126  A    between atoms: _318  and  _319
REMARK  127  A    between atoms: _324  and  _326
REMARK  128  A    between atoms: _326  and  _327
REMARK  129  A    between atoms: _329  and  _331
REMARK  130  A    between atoms: _331  and  _332
REMARK  131  A    between atoms: _331  and  _334
REMARK  132  A    between atoms: _334  and  _335
REMARK  133  A    between atoms: _340  and  _342
REMARK  134  A    between atoms: _342  and  _343
REMARK                            x       y       z     vdW  Elec       q    Type
REMARK                         _______ _______ _______ _____ _____    ______ ____
ROOT
ATOM      1  CA  SER A   1      19.400   6.733  24.709  0.00  0.00    +0.163 C 
ENDROOT
BRANCH   1   2
ATOM      2  N   SER A   1      18.780   8.010  25.081  0.00  0.00    -0.237 NA
ATOM      3  H   SER A   1      17.764   8.144  24.901  0.00  0.00    +0.142 HD
ENDBRANCH   1   2
BRANCH   1   4
ATOM      4  C   SER A   1      20.627   6.904  23.809  0.00  0.00    +0.227 C 
ATOM      5  O   SER A   1      21.648   6.242  24.013  0.00  0.00    -0.287 OA
ENDBRANCH   1   4
BRANCH   1   6
ATOM      6  CB  SER A   1      18.373   5.790  24.067  0.00  0.00    +0.162 C 
BRANCH   6   7
ATOM      7  OG  SER A   1      17.803   6.350  22.894  0.00  0.00    -0.380 OA
ATOM      8  H   SER A   1      18.518   6.527  22.233  0.00  0.00    +0.211 HD
ENDBRANCH   6   7
ENDBRANCH   1   6
TORSDOF 4
REMARK  Name = ../refined-set-2016/3ie3/3ie3_pocket.pdb
REMARK  134 active torsions:
REMARK  status: ('A' for Active; 'I' for Inactive)
REMARK    1  A    between atoms: _1  and  _3
REMARK    2  A    between atoms: _3  and  _4
REMARK    3  A    between atoms: _3  and  _6
REMARK    4  A    between atoms: _6  and  _7
REMARK    5  A    between atoms: _12  and  _13
REMARK    6  A    between atoms: _15  and  _17
REMARK    7  A    between atoms: _17  and  _18
REMARK    8  A    between atoms: _17  and  _20
REMARK    9  A    between atoms: _20  and  _21
REMARK   10  A    between atoms: _28  and  _29
REMARK   11  A    between atoms: _34  and  _36
REMARK   12  A    between atoms: _36  and  _37
REMARK   13  A    between atoms: _36  and  _39
REMARK   14  A    between atoms: _42  and  _44
REMARK   15  A    between atoms: _44  and  _45
REMARK   16  A    between atoms: _44  and  _47
REMARK   17  A    between atoms: _47  and  _48
REMARK   18  A    between atoms: _48  and  _49
REMARK   19  A    between atoms: _49  and  _50
REMARK   20  A    between atoms: _59  and  _61
REMARK   21  A    between atoms: _61  and  _62
REMARK   22  A    between atoms: _64  and  _66
REMARK   23  A    between atoms: _66  and  _67
REMARK   24  A    between atoms: _66  and  _69
REMARK   25  A    between atoms: _69  and  _70
REMARK   26  A    between atoms: _70  and  _71
REMARK   27  A    between atoms: _71  and  _72
REMARK   28  A    between atoms: _81  and  _83
REMARK   29  A    between atoms: _83  and  _84
REMARK   30  A    between atoms: _83  and  _86
REMARK   31  A    between atoms: _88  and  _90
REMARK   32  A    between atoms: _90  and  _91
REMARK   33  A    between atoms: _90  and  _93
REMARK   34  A    between atoms: _96  and  _98
REMARK   35  A    between atoms: _98  and  _99
REMARK   36  A    between atoms: _98  and  _101
REMARK   37  A    between atoms: _101  and  _102
REMARK   38  A    between atoms: _105  and  _107
REMARK   39  A    between atoms: _107  and  _108
REMARK   40  A    between atoms: _107  and  _110
REMARK   41  A    between atoms: _113  and  _115
REMARK   42  A    between atoms: _115  and  _116
REMARK   43  A    between atoms: _115  and  _118
REMARK   44  A    between atoms: _118  and  _119
REMARK   45  A    between atoms: _119  and  _120
REMARK   46  A    between atoms: _123  and  _125
REMARK   47  A    between atoms: _125  and  _126
REMARK   48  A    between atoms: _125  and  _128
REMARK   49  A    between atoms: _128  and  _129
REMARK   50  A    between atoms: _139  and  _141
REMARK   51  A    between atoms: _141  and  _142
REMARK   52  A    between atoms: _141  and  _144
REMARK   53  A    between atoms: _144  and  _145
REMARK   54  A    between atoms: _145  and  _146
REMARK   55  A    between atoms: _151  and  _153
REMARK   56  A    between atoms: _153  and  _154
REMARK   57  A    between atoms: _153  and  _156
REMARK   58  A    between atoms: _156  and  _157
REMARK   59  A    between atoms: _157  and  _158
REMARK   60  A    between atoms: _161  and  _163
REMARK   61  A    between atoms: _163  and  _164
REMARK   62  A    between atoms: _163  and  _166
REMARK   63  A    between atoms: _166  and  _167
REMARK   64  A    between atoms: _167  and  _168
REMARK   65  A    between atoms: _168  and  _169
REMARK   66  A    between atoms: _169  and  _170
REMARK   67  A    between atoms: _174  and  _176
REMARK   68  A    between atoms: _176  and  _177
REMARK   69  A    between atoms: _176  and  _179
REMARK   70  A    between atoms: _179  and  _180
REMARK   71  A    between atoms: _180  and  _181
REMARK   72  A    between atoms: _186  and  _188
REMARK   73  A    between atoms: _188  and  _189
REMARK   74  A    between atoms: _188  and  _191
REMARK   75  A    between atoms: _191  and  _192
REMARK   76  A    between atoms: _196  and  _197
REMARK   77  A    between atoms: _202  and  _204
REMARK   78  A    between atoms: _204  and  _205
REMARK   79  A    between atoms: _204  and  _207
REMARK   80  A    between atoms: _207  and  _208
REMARK   81  A    between atoms: _210  and  _212
REMARK   82  A    between atoms: _212  and  _213
REMARK   83  A    between atoms: _212  and  _215
REMARK   84  A    between atoms: _215  and  _216
REMARK   85  A    between atoms: _216  and  _217
REMARK   86  A    between atoms: _220  and  _222
REMARK   87  A    between atoms: _222  and  _223
REMARK   88  A    between atoms: _222  and  _225
REMARK   89  A    between atoms: _225  and  _226
REMARK   90  A    between atoms: _226  and  _227
REMARK   91  A    between atoms: _227  and  _228
REMARK   92  A    between atoms: _237  and  _239
REMARK   93  A    between atoms: _239  and  _240
REMARK   94  A    between atoms: _239  and  _242
REMARK   95  A    between atoms: _244  and  _246
REMARK   96  A    between atoms: _246  and  _247
REMARK   97  A    between atoms: _246  and  _249
REMARK   98  A    between atoms: _249  and  _250
REMARK   99  A    between atoms: _255  and  _256
REMARK  100  A    between atoms: _258  and  _260
REMARK  101  A    between atoms: _260  and  _261
REMARK  102  A    between atoms: _264  and  _266
REMARK  103  A    between atoms: _266  and  _267
REMARK  104  A    between atoms: _266  and  _269
REMARK  105  A    between atoms: _269  and  _270
REMARK  106  A    between atoms: _272  and  _274
REMARK  107  A    between atoms: _274  and  _275
REMARK  108  A    between atoms: _274  and  _277
REMARK  109  A    between atoms: _277  and  _278
REMARK  110  A    between atoms: _281  and  _283
REMARK  111  A    between atoms: _283  and  _284
REMARK  112  A    between atoms: _283  and  _286
REMARK  113  A    between atoms: _286  and  _287
REMARK  114  A    between atoms: _292  and  _293
REMARK  115  A    between atoms: _295  and  _297
REMARK  116  A    between atoms: _297  and  _298
REMARK  117  A    between atoms: _297  and  _300
REMARK  118  A    between atoms: _300  and  _301
REMARK  119  A    between atoms: _304  and  _306
REMARK  120  A    between atoms: _306  and  _307
REMARK  121  A    between atoms: _306  and  _309
REMARK  122  A    between atoms: _309  and  _310
REMARK  123  A    between atoms: _313  and  _315
REMARK  124  A    between atoms: _315  and  _316
REMARK  125  A    between atoms: _315  and  _318
REMARK  126  A    between atoms: _318  and  _319
REMARK  127  A    between atoms: _324  and  _326
REMARK  128  A    between atoms: _326  and  _327
REMARK  129  A    between atoms: _329  and  _331
REMARK  130  A    between atoms: _331  and  _332
REMARK  131  A    between atoms: _331  and  _334
REMARK  132  A    between atoms: _334  and  _335
REMARK  133  A    between atoms: _340  and  _342
REMARK  134  A    between atoms: _342  and  _343
REMARK                            x       y       z     vdW  Elec       q    Type
REMARK                         _______ _______ _______ _____ _____    ______ ____
ROOT
ATOM      1  CA  GLU A   1      17.163   6.446  15.171  0.00  0.00    +0.134 C 
ENDROOT
BRANCH   1   2
ATOM      2  N   GLU A   1      18.113   5.727  14.319  0.00  0.00    -0.239 NA
ATOM      3  H   GLU A   1      19.060   6.130  14.169  0.00  0.00    +0.142 HD
ENDBRANCH   1   2
BRANCH   1   4
ATOM      4  C   GLU A   1      15.882   6.809  14.410  0.00  0.00    +0.224 C 
ATOM      5  O   GLU A   1      14.782   6.609  14.923  0.00  0.00    -0.287 OA
ENDBRANCH   1   4
BRANCH   1   6
ATOM      6  CB  GLU A   1      17.820   7.688  15.794  0.00  0.00    +0.037 C 
BRANCH   6   7
ATOM      7  CG  GLU A   1      16.871   8.630  16.552  0.00  0.00    +0.116 C 
BRANCH   7   8
ATOM      8  CD  GLU A   1      16.209   8.004  17.777  0.00  0.00    +0.365 C 
ATOM      9  OE2 GLU A   1      16.680   6.954  18.271  0.00  0.00    -0.246 OA
ATOM     10  OE1 GLU A   1      15.210   8.583  18.254  0.00  0.00    -0.246 OA
ENDBRANCH   7   8
ENDBRANCH   6   7
ENDBRANCH   1   6
TORSDOF 5
REMARK  Name = ../refined-set-2016/3ie3/3ie3_pocket.pdb
REMARK  134 active torsions:
REMARK  status: ('A' for Active; 'I' for Inactive)
REMARK    1  A    between atoms: _1  and  _3
REMARK    2  A    between atoms: _3  and  _4
REMARK    3  A    between atoms: _3  and  _6
REMARK    4  A    between atoms: _6  and  _7
REMARK    5  A    between atoms: _12  and  _13
REMARK    6  A    between atoms: _15  and  _17
REMARK    7  A    between atoms: _17  and  _18
REMARK    8  A    between atoms: _17  and  _20
REMARK    9  A    between atoms: _20  and  _21
REMARK   10  A    between atoms: _28  and  _29
REMARK   11  A    between atoms: _34  and  _36
REMARK   12  A    between atoms: _36  and  _37
REMARK   13  A    between atoms: _36  and  _39
REMARK   14  A    between atoms: _42  and  _44
REMARK   15  A    between atoms: _44  and  _45
REMARK   16  A    between atoms: _44  and  _47
REMARK   17  A    between atoms: _47  and  _48
REMARK   18  A    between atoms: _48  and  _49
REMARK   19  A    between atoms: _49  and  _50
REMARK   20  A    between atoms: _59  and  _61
REMARK   21  A    between atoms: _61  and  _62
REMARK   22  A    between atoms: _64  and  _66
REMARK   23  A    between atoms: _66  and  _67
REMARK   24  A    between atoms: _66  and  _69
REMARK   25  A    between atoms: _69  and  _70
REMARK   26  A    between atoms: _70  and  _71
REMARK   27  A    between atoms: _71  and  _72
REMARK   28  A    between atoms: _81  and  _83
REMARK   29  A    between atoms: _83  and  _84
REMARK   30  A    between atoms: _83  and  _86
REMARK   31  A    between atoms: _88  and  _90
REMARK   32  A    between atoms: _90  and  _91
REMARK   33  A    between atoms: _90  and  _93
REMARK   34  A    between atoms: _96  and  _98
REMARK   35  A    between atoms: _98  and  _99
REMARK   36  A    between atoms: _98  and  _101
REMARK   37  A    between atoms: _101  and  _102
REMARK   38  A    between atoms: _105  and  _107
REMARK   39  A    between atoms: _107  and  _108
REMARK   40  A    between atoms: _107  and  _110
REMARK   41  A    between atoms: _113  and  _115
REMARK   42  A    between atoms: _115  and  _116
REMARK   43  A    between atoms: _115  and  _118
REMARK   44  A    between atoms: _118  and  _119
REMARK   45  A    between atoms: _119  and  _120
REMARK   46  A    between atoms: _123  and  _125
REMARK   47  A    between atoms: _125  and  _126
REMARK   48  A    between atoms: _125  and  _128
REMARK   49  A    between atoms: _128  and  _129
REMARK   50  A    between atoms: _139  and  _141
REMARK   51  A    between atoms: _141  and  _142
REMARK   52  A    between atoms: _141  and  _144
REMARK   53  A    between atoms: _144  and  _145
REMARK   54  A    between atoms: _145  and  _146
REMARK   55  A    between atoms: _151  and  _153
REMARK   56  A    between atoms: _153  and  _154
REMARK   57  A    between atoms: _153  and  _156
REMARK   58  A    between atoms: _156  and  _157
REMARK   59  A    between atoms: _157  and  _158
REMARK   60  A    between atoms: _161  and  _163
REMARK   61  A    between atoms: _163  and  _164
REMARK   62  A    between atoms: _163  and  _166
REMARK   63  A    between atoms: _166  and  _167
REMARK   64  A    between atoms: _167  and  _168
REMARK   65  A    between atoms: _168  and  _169
REMARK   66  A    between atoms: _169  and  _170
REMARK   67  A    between atoms: _174  and  _176
REMARK   68  A    between atoms: _176  and  _177
REMARK   69  A    between atoms: _176  and  _179
REMARK   70  A    between atoms: _179  and  _180
REMARK   71  A    between atoms: _180  and  _181
REMARK   72  A    between atoms: _186  and  _188
REMARK   73  A    between atoms: _188  and  _189
REMARK   74  A    between atoms: _188  and  _191
REMARK   75  A    between atoms: _191  and  _192
REMARK   76  A    between atoms: _196  and  _197
REMARK   77  A    between atoms: _202  and  _204
REMARK   78  A    between atoms: _204  and  _205
REMARK   79  A    between atoms: _204  and  _207
REMARK   80  A    between atoms: _207  and  _208
REMARK   81  A    between atoms: _210  and  _212
REMARK   82  A    between atoms: _212  and  _213
REMARK   83  A    between atoms: _212  and  _215
REMARK   84  A    between atoms: _215  and  _216
REMARK   85  A    between atoms: _216  and  _217
REMARK   86  A    between atoms: _220  and  _222
REMARK   87  A    between atoms: _222  and  _223
REMARK   88  A    between atoms: _222  and  _225
REMARK   89  A    between atoms: _225  and  _226
REMARK   90  A    between atoms: _226  and  _227
REMARK   91  A    between atoms: _227  and  _228
REMARK   92  A    between atoms: _237  and  _239
REMARK   93  A    between atoms: _239  and  _240
REMARK   94  A    between atoms: _239  and  _242
REMARK   95  A    between atoms: _244  and  _246
REMARK   96  A    between atoms: _246  and  _247
REMARK   97  A    between atoms: _246  and  _249
REMARK   98  A    between atoms: _249  and  _250
REMARK   99  A    between atoms: _255  and  _256
REMARK  100  A    between atoms: _258  and  _260
REMARK  101  A    between atoms: _260  and  _261
REMARK  102  A    between atoms: _264  and  _266
REMARK  103  A    between atoms: _266  and  _267
REMARK  104  A    between atoms: _266  and  _269
REMARK  105  A    between atoms: _269  and  _270
REMARK  106  A    between atoms: _272  and  _274
REMARK  107  A    between atoms: _274  and  _275
REMARK  108  A    between atoms: _274  and  _277
REMARK  109  A    between atoms: _277  and  _278
REMARK  110  A    between atoms: _281  and  _283
REMARK  111  A    between atoms: _283  and  _284
REMARK  112  A    between atoms: _283  and  _286
REMARK  113  A    between atoms: _286  and  _287
REMARK  114  A    between atoms: _292  and  _293
REMARK  115  A    between atoms: _295  and  _297
REMARK  116  A    between atoms: _297  and  _298
REMARK  117  A    between atoms: _297  and  _300
REMARK  118  A    between atoms: _300  and  _301
REMARK  119  A    between atoms: _304  and  _306
REMARK  120  A    between atoms: _306  and  _307
REMARK  121  A    between atoms: _306  and  _309
REMARK  122  A    between atoms: _309  and  _310
REMARK  123  A    between atoms: _313  and  _315
REMARK  124  A    between atoms: _315  and  _316
REMARK  125  A    between atoms: _315  and  _318
REMARK  126  A    between atoms: _318  and  _319
REMARK  127  A    between atoms: _324  and  _326
REMARK  128  A    between atoms: _326  and  _327
REMARK  129  A    between atoms: _329  and  _331
REMARK  130  A    between atoms: _331  and  _332
REMARK  131  A    between atoms: _331  and  _334
REMARK  132  A    between atoms: _334  and  _335
REMARK  133  A    between atoms: _340  and  _342
REMARK  134  A    between atoms: _342  and  _343
REMARK                            x       y       z     vdW  Elec       q    Type
REMARK                         _______ _______ _______ _____ _____    ______ ____
ROOT
ATOM      1  CA  ARG A   1      13.413   3.351  15.367  0.00  0.00    +0.145 C 
ENDROOT
BRANCH   1   2
ATOM      2  C   ARG A   1      12.195   4.165  15.807  0.00  0.00    +0.238 C 
ATOM      3  O   ARG A   1      11.288   3.628  16.445  0.00  0.00    -0.274 OA
ATOM      4  N   CYS A   2      12.182   5.456  15.471  0.00  0.00    -0.298 N 
ATOM      5  H   CYS A   2      13.001   5.859  14.973  0.00  0.00    +0.150 HD
BRANCH   4   6
ATOM      6  CA  CYS A   2      11.043   6.320  15.786  0.00  0.00    +0.149 C 
BRANCH   6   7
ATOM      7  CB  CYS A   2      11.355   7.779  15.459  0.00  0.00    +0.096 C 
ATOM      8  SG  CYS A   2      12.556   8.514  16.567  0.00  0.00    -0.080 S 
ENDBRANCH   6   7
BRANCH   6   9
ATOM      9  C   CYS A   2       9.785   5.871  15.052  0.00  0.00    +0.228 C 
ATOM     10  O   CYS A   2       8.699   5.837  15.635  0.00  0.00    -0.286 OA
ENDBRANCH   6   9
ENDBRANCH   4   6
ENDBRANCH   1   2
BRANCH   1  11
ATOM     11  N   ARG A   1      13.881   3.725  14.030  0.00  0.00    -0.238 NA
ATOM     12  H   ARG A   1      14.851   4.079  13.910  0.00  0.00    +0.142 HD
ENDBRANCH   1  11
BRANCH   1  13
ATOM     13  CB  ARG A   1      14.529   3.462  16.411  0.00  0.00    +0.030 C 
BRANCH  13  14
ATOM     14  CG  ARG A   1      14.137   2.863  17.770  0.00  0.00    +0.045 C 
BRANCH  14  15
ATOM     15  CD  ARG A   1      15.262   2.939  18.797  0.00  0.00    +0.174 C 
BRANCH  15  16
ATOM     16  NE  ARG A   1      16.408   2.096  18.453  0.00  0.00    -0.265 N 
ATOM     17  CZ  ARG A   1      16.487   0.785  18.683  0.00  0.00    +0.342 C 
ATOM     18  NH2 ARG A   1      15.475   0.134  19.241  0.00  0.00    -0.292 N 
ATOM     19 HH21 ARG A   1      14.609   0.646  19.504  0.00  0.00    +0.255 HD
ATOM     20 HH22 ARG A   1      15.548  -0.889  19.416  0.00  0.00    +0.255 HD
ATOM     21  NH1 ARG A   1      17.583   0.117  18.341  0.00  0.00    -0.292 N 
ATOM     22 HH11 ARG A   1      17.646  -0.906  18.520  0.00  0.00    +0.255 HD
ATOM     23 HH12 ARG A   1      18.378   0.617  17.894  0.00  0.00    +0.255 HD
ATOM     24  HE  ARG A   1      17.222   2.554  17.995  0.00  0.00    +0.259 HD
ENDBRANCH  15  16
ENDBRANCH  14  15
ENDBRANCH  13  14
ENDBRANCH   1  13
TORSDOF 9
REMARK  Name = ../refined-set-2016/3ie3/3ie3_pocket.pdb
REMARK  134 active torsions:
REMARK  status: ('A' for Active; 'I' for Inactive)
REMARK    1  A    between atoms: _1  and  _3
REMARK    2  A    between atoms: _3  and  _4
REMARK    3  A    between atoms: _3  and  _6
REMARK    4  A    between atoms: _6  and  _7
REMARK    5  A    between atoms: _12  and  _13
REMARK    6  A    between atoms: _15  and  _17
REMARK    7  A    between atoms: _17  and  _18
REMARK    8  A    between atoms: _17  and  _20
REMARK    9  A    between atoms: _20  and  _21
REMARK   10  A    between atoms: _28  and  _29
REMARK   11  A    between atoms: _34  and  _36
REMARK   12  A    between atoms: _36  and  _37
REMARK   13  A    between atoms: _36  and  _39
REMARK   14  A    between atoms: _42  and  _44
REMARK   15  A    between atoms: _44  and  _45
REMARK   16  A    between atoms: _44  and  _47
REMARK   17  A    between atoms: _47  and  _48
REMARK   18  A    between atoms: _48  and  _49
REMARK   19  A    between atoms: _49  and  _50
REMARK   20  A    between atoms: _59  and  _61
REMARK   21  A    between atoms: _61  and  _62
REMARK   22  A    between atoms: _64  and  _66
REMARK   23  A    between atoms: _66  and  _67
REMARK   24  A    between atoms: _66  and  _69
REMARK   25  A    between atoms: _69  and  _70
REMARK   26  A    between atoms: _70  and  _71
REMARK   27  A    between atoms: _71  and  _72
REMARK   28  A    between atoms: _81  and  _83
REMARK   29  A    between atoms: _83  and  _84
REMARK   30  A    between atoms: _83  and  _86
REMARK   31  A    between atoms: _88  and  _90
REMARK   32  A    between atoms: _90  and  _91
REMARK   33  A    between atoms: _90  and  _93
REMARK   34  A    between atoms: _96  and  _98
REMARK   35  A    between atoms: _98  and  _99
REMARK   36  A    between atoms: _98  and  _101
REMARK   37  A    between atoms: _101  and  _102
REMARK   38  A    between atoms: _105  and  _107
REMARK   39  A    between atoms: _107  and  _108
REMARK   40  A    between atoms: _107  and  _110
REMARK   41  A    between atoms: _113  and  _115
REMARK   42  A    between atoms: _115  and  _116
REMARK   43  A    between atoms: _115  and  _118
REMARK   44  A    between atoms: _118  and  _119
REMARK   45  A    between atoms: _119  and  _120
REMARK   46  A    between atoms: _123  and  _125
REMARK   47  A    between atoms: _125  and  _126
REMARK   48  A    between atoms: _125  and  _128
REMARK   49  A    between atoms: _128  and  _129
REMARK   50  A    between atoms: _139  and  _141
REMARK   51  A    between atoms: _141  and  _142
REMARK   52  A    between atoms: _141  and  _144
REMARK   53  A    between atoms: _144  and  _145
REMARK   54  A    between atoms: _145  and  _146
REMARK   55  A    between atoms: _151  and  _153
REMARK   56  A    between atoms: _153  and  _154
REMARK   57  A    between atoms: _153  and  _156
REMARK   58  A    between atoms: _156  and  _157
REMARK   59  A    between atoms: _157  and  _158
REMARK   60  A    between atoms: _161  and  _163
REMARK   61  A    between atoms: _163  and  _164
REMARK   62  A    between atoms: _163  and  _166
REMARK   63  A    between atoms: _166  and  _167
REMARK   64  A    between atoms: _167  and  _168
REMARK   65  A    between atoms: _168  and  _169
REMARK   66  A    between atoms: _169  and  _170
REMARK   67  A    between atoms: _174  and  _176
REMARK   68  A    between atoms: _176  and  _177
REMARK   69  A    between atoms: _176  and  _179
REMARK   70  A    between atoms: _179  and  _180
REMARK   71  A    between atoms: _180  and  _181
REMARK   72  A    between atoms: _186  and  _188
REMARK   73  A    between atoms: _188  and  _189
REMARK   74  A    between atoms: _188  and  _191
REMARK   75  A    between atoms: _191  and  _192
REMARK   76  A    between atoms: _196  and  _197
REMARK   77  A    between atoms: _202  and  _204
REMARK   78  A    between atoms: _204  and  _205
REMARK   79  A    between atoms: _204  and  _207
REMARK   80  A    between atoms: _207  and  _208
REMARK   81  A    between atoms: _210  and  _212
REMARK   82  A    between atoms: _212  and  _213
REMARK   83  A    between atoms: _212  and  _215
REMARK   84  A    between atoms: _215  and  _216
REMARK   85  A    between atoms: _216  and  _217
REMARK   86  A    between atoms: _220  and  _222
REMARK   87  A    between atoms: _222  and  _223
REMARK   88  A    between atoms: _222  and  _225
REMARK   89  A    between atoms: _225  and  _226
REMARK   90  A    between atoms: _226  and  _227
REMARK   91  A    between atoms: _227  and  _228
REMARK   92  A    between atoms: _237  and  _239
REMARK   93  A    between atoms: _239  and  _240
REMARK   94  A    between atoms: _239  and  _242
REMARK   95  A    between atoms: _244  and  _246
REMARK   96  A    between atoms: _246  and  _247
REMARK   97  A    between atoms: _246  and  _249
REMARK   98  A    between atoms: _249  and  _250
REMARK   99  A    between atoms: _255  and  _256
REMARK  100  A    between atoms: _258  and  _260
REMARK  101  A    between atoms: _260  and  _261
REMARK  102  A    between atoms: _264  and  _266
REMARK  103  A    between atoms: _266  and  _267
REMARK  104  A    between atoms: _266  and  _269
REMARK  105  A    between atoms: _269  and  _270
REMARK  106  A    between atoms: _272  and  _274
REMARK  107  A    between atoms: _274  and  _275
REMARK  108  A    between atoms: _274  and  _277
REMARK  109  A    between atoms: _277  and  _278
REMARK  110  A    between atoms: _281  and  _283
REMARK  111  A    between atoms: _283  and  _284
REMARK  112  A    between atoms: _283  and  _286
REMARK  113  A    between atoms: _286  and  _287
REMARK  114  A    between atoms: _292  and  _293
REMARK  115  A    between atoms: _295  and  _297
REMARK  116  A    between atoms: _297  and  _298
REMARK  117  A    between atoms: _297  and  _300
REMARK  118  A    between atoms: _300  and  _301
REMARK  119  A    between atoms: _304  and  _306
REMARK  120  A    between atoms: _306  and  _307
REMARK  121  A    between atoms: _306  and  _309
REMARK  122  A    between atoms: _309  and  _310
REMARK  123  A    between atoms: _313  and  _315
REMARK  124  A    between atoms: _315  and  _316
REMARK  125  A    between atoms: _315  and  _318
REMARK  126  A    between atoms: _318  and  _319
REMARK  127  A    between atoms: _324  and  _326
REMARK  128  A    between atoms: _326  and  _327
REMARK  129  A    between atoms: _329  and  _331
REMARK  130  A    between atoms: _331  and  _332
REMARK  131  A    between atoms: _331  and  _334
REMARK  132  A    between atoms: _334  and  _335
REMARK  133  A    between atoms: _340  and  _342
REMARK  134  A    between atoms: _342  and  _343
REMARK                            x       y       z     vdW  Elec       q    Type
REMARK                         _______ _______ _______ _____ _____    ______ ____
ROOT
ATOM      1  C   TYR A   1       8.176   1.729  15.879  0.00  0.00    +0.239 C 
ATOM      2  N   ALA A   2       8.678   2.610  16.744  0.00  0.00    -0.297 N 
ATOM      3  H   ALA A   2       9.560   3.106  16.503  0.00  0.00    +0.150 HD
ATOM      4  O   TYR A   1       7.126   1.113  16.074  0.00  0.00    -0.274 OA
ENDROOT
BRANCH   2   5
ATOM      5  CA  ALA A   2       8.027   2.902  18.025  0.00  0.00    +0.149 C 
ATOM      6  CB  ALA A   2       8.879   3.850  18.860  0.00  0.00    +0.031 C 
BRANCH   5   7
ATOM      7  C   ALA A   2       6.615   3.458  17.842  0.00  0.00    +0.241 C 
ATOM      8  O   ALA A   2       5.694   3.073  18.570  0.00  0.00    -0.273 OA
ATOM      9  N   SER A   3       6.447   4.344  16.861  0.00  0.00    -0.296 N 
ATOM     10  H   SER A   3       7.271   4.634  16.296  0.00  0.00    +0.150 HD
BRANCH   9  11
ATOM     11  CA  SER A   3       5.134   4.923  16.554  0.00  0.00    +0.166 C 
BRANCH  11  12
ATOM     12  CB  SER A   3       4.133   3.846  16.136  0.00  0.00    +0.229 C 
ATOM     13  OG  SER A   3       2.967   3.892  16.536  0.00  0.00    -0.286 OA
ENDBRANCH  11  12
BRANCH  11  14
ATOM     14  C   SER A   3       5.242   5.995  15.468  0.00  0.00    +0.165 C 
BRANCH  14  15
ATOM     15  O   SER A   3       3.970   6.566  15.194  0.00  0.00    -0.380 OA
ATOM     16  H   SER A   3       3.352   5.858  14.884  0.00  0.00    +0.211 HD
ENDBRANCH  14  15
ENDBRANCH  11  14
ENDBRANCH   9  11
ENDBRANCH   5   7
ENDBRANCH   2   5
BRANCH   1  17
ATOM     17  CA  TYR A   1       8.968   1.515  14.591  0.00  0.00    +0.149 C 
BRANCH  17  18
ATOM     18  N   TYR A   1       9.276   2.796  13.950  0.00  0.00    -0.238 NA
ATOM     19  H   TYR A   1      10.273   3.044  13.786  0.00  0.00    +0.142 HD
ENDBRANCH  17  18
BRANCH  17  20
ATOM     20  CB  TYR A   1      10.259   0.731  14.869  0.00  0.00    +0.053 C 
BRANCH  20  21
ATOM     21  CG  TYR A   1      10.072  -0.514  15.719  0.00  0.00    -0.020 A 
ATOM     22  CD2 TYR A   1      10.189  -0.455  17.109  0.00  0.00    -0.001 A 
ATOM     23  CE2 TYR A   1      10.020  -1.591  17.897  0.00  0.00    +0.036 A 
ATOM     24  CZ  TYR A   1       9.734  -2.806  17.296  0.00  0.00    +0.134 A 
ATOM     25  CE1 TYR A   1       9.615  -2.898  15.914  0.00  0.00    +0.036 A 
ATOM     26  CD1 TYR A   1       9.783  -1.750  15.131  0.00  0.00    -0.001 A 
BRANCH  24  27
ATOM     27  OH  TYR A   1       9.568  -3.923  18.087  0.00  0.00    -0.506 OA
ATOM     28  HH  TYR A   1      10.240  -4.606  17.837  0.00  0.00    +0.292 HD
ENDBRANCH  24  27
ENDBRANCH  20  21
ENDBRANCH  17  20
ENDBRANCH   1  17
TORSDOF 11
REMARK  Name = ../refined-set-2016/3ie3/3ie3_pocket.pdb
REMARK  134 active torsions:
REMARK  status: ('A' for Active; 'I' for Inactive)
REMARK    1  A    between atoms: _1  and  _3
REMARK    2  A    between atoms: _3  and  _4
REMARK    3  A    between atoms: _3  and  _6
REMARK    4  A    between atoms: _6  and  _7
REMARK    5  A    between atoms: _12  and  _13
REMARK    6  A    between atoms: _15  and  _17
REMARK    7  A    between atoms: _17  and  _18
REMARK    8  A    between atoms: _17  and  _20
REMARK    9  A    between atoms: _20  and  _21
REMARK   10  A    between atoms: _28  and  _29
REMARK   11  A    between atoms: _34  and  _36
REMARK   12  A    between atoms: _36  and  _37
REMARK   13  A    between atoms: _36  and  _39
REMARK   14  A    between atoms: _42  and  _44
REMARK   15  A    between atoms: _44  and  _45
REMARK   16  A    between atoms: _44  and  _47
REMARK   17  A    between atoms: _47  and  _48
REMARK   18  A    between atoms: _48  and  _49
REMARK   19  A    between atoms: _49  and  _50
REMARK   20  A    between atoms: _59  and  _61
REMARK   21  A    between atoms: _61  and  _62
REMARK   22  A    between atoms: _64  and  _66
REMARK   23  A    between atoms: _66  and  _67
REMARK   24  A    between atoms: _66  and  _69
REMARK   25  A    between atoms: _69  and  _70
REMARK   26  A    between atoms: _70  and  _71
REMARK   27  A    between atoms: _71  and  _72
REMARK   28  A    between atoms: _81  and  _83
REMARK   29  A    between atoms: _83  and  _84
REMARK   30  A    between atoms: _83  and  _86
REMARK   31  A    between atoms: _88  and  _90
REMARK   32  A    between atoms: _90  and  _91
REMARK   33  A    between atoms: _90  and  _93
REMARK   34  A    between atoms: _96  and  _98
REMARK   35  A    between atoms: _98  and  _99
REMARK   36  A    between atoms: _98  and  _101
REMARK   37  A    between atoms: _101  and  _102
REMARK   38  A    between atoms: _105  and  _107
REMARK   39  A    between atoms: _107  and  _108
REMARK   40  A    between atoms: _107  and  _110
REMARK   41  A    between atoms: _113  and  _115
REMARK   42  A    between atoms: _115  and  _116
REMARK   43  A    between atoms: _115  and  _118
REMARK   44  A    between atoms: _118  and  _119
REMARK   45  A    between atoms: _119  and  _120
REMARK   46  A    between atoms: _123  and  _125
REMARK   47  A    between atoms: _125  and  _126
REMARK   48  A    between atoms: _125  and  _128
REMARK   49  A    between atoms: _128  and  _129
REMARK   50  A    between atoms: _139  and  _141
REMARK   51  A    between atoms: _141  and  _142
REMARK   52  A    between atoms: _141  and  _144
REMARK   53  A    between atoms: _144  and  _145
REMARK   54  A    between atoms: _145  and  _146
REMARK   55  A    between atoms: _151  and  _153
REMARK   56  A    between atoms: _153  and  _154
REMARK   57  A    between atoms: _153  and  _156
REMARK   58  A    between atoms: _156  and  _157
REMARK   59  A    between atoms: _157  and  _158
REMARK   60  A    between atoms: _161  and  _163
REMARK   61  A    between atoms: _163  and  _164
REMARK   62  A    between atoms: _163  and  _166
REMARK   63  A    between atoms: _166  and  _167
REMARK   64  A    between atoms: _167  and  _168
REMARK   65  A    between atoms: _168  and  _169
REMARK   66  A    between atoms: _169  and  _170
REMARK   67  A    between atoms: _174  and  _176
REMARK   68  A    between atoms: _176  and  _177
REMARK   69  A    between atoms: _176  and  _179
REMARK   70  A    between atoms: _179  and  _180
REMARK   71  A    between atoms: _180  and  _181
REMARK   72  A    between atoms: _186  and  _188
REMARK   73  A    between atoms: _188  and  _189
REMARK   74  A    between atoms: _188  and  _191
REMARK   75  A    between atoms: _191  and  _192
REMARK   76  A    between atoms: _196  and  _197
REMARK   77  A    between atoms: _202  and  _204
REMARK   78  A    between atoms: _204  and  _205
REMARK   79  A    between atoms: _204  and  _207
REMARK   80  A    between atoms: _207  and  _208
REMARK   81  A    between atoms: _210  and  _212
REMARK   82  A    between atoms: _212  and  _213
REMARK   83  A    between atoms: _212  and  _215
REMARK   84  A    between atoms: _215  and  _216
REMARK   85  A    between atoms: _216  and  _217
REMARK   86  A    between atoms: _220  and  _222
REMARK   87  A    between atoms: _222  and  _223
REMARK   88  A    between atoms: _222  and  _225
REMARK   89  A    between atoms: _225  and  _226
REMARK   90  A    between atoms: _226  and  _227
REMARK   91  A    between atoms: _227  and  _228
REMARK   92  A    between atoms: _237  and  _239
REMARK   93  A    between atoms: _239  and  _240
REMARK   94  A    between atoms: _239  and  _242
REMARK   95  A    between atoms: _244  and  _246
REMARK   96  A    between atoms: _246  and  _247
REMARK   97  A    between atoms: _246  and  _249
REMARK   98  A    between atoms: _249  and  _250
REMARK   99  A    between atoms: _255  and  _256
REMARK  100  A    between atoms: _258  and  _260
REMARK  101  A    between atoms: _260  and  _261
REMARK  102  A    between atoms: _264  and  _266
REMARK  103  A    between atoms: _266  and  _267
REMARK  104  A    between atoms: _266  and  _269
REMARK  105  A    between atoms: _269  and  _270
REMARK  106  A    between atoms: _272  and  _274
REMARK  107  A    between atoms: _274  and  _275
REMARK  108  A    between atoms: _274  and  _277
REMARK  109  A    between atoms: _277  and  _278
REMARK  110  A    between atoms: _281  and  _283
REMARK  111  A    between atoms: _283  and  _284
REMARK  112  A    between atoms: _283  and  _286
REMARK  113  A    between atoms: _286  and  _287
REMARK  114  A    between atoms: _292  and  _293
REMARK  115  A    between atoms: _295  and  _297
REMARK  116  A    between atoms: _297  and  _298
REMARK  117  A    between atoms: _297  and  _300
REMARK  118  A    between atoms: _300  and  _301
REMARK  119  A    between atoms: _304  and  _306
REMARK  120  A    between atoms: _306  and  _307
REMARK  121  A    between atoms: _306  and  _309
REMARK  122  A    between atoms: _309  and  _310
REMARK  123  A    between atoms: _313  and  _315
REMARK  124  A    between atoms: _315  and  _316
REMARK  125  A    between atoms: _315  and  _318
REMARK  126  A    between atoms: _318  and  _319
REMARK  127  A    between atoms: _324  and  _326
REMARK  128  A    between atoms: _326  and  _327
REMARK  129  A    between atoms: _329  and  _331
REMARK  130  A    between atoms: _331  and  _332
REMARK  131  A    between atoms: _331  and  _334
REMARK  132  A    between atoms: _334  and  _335
REMARK  133  A    between atoms: _340  and  _342
REMARK  134  A    between atoms: _342  and  _343
REMARK                            x       y       z     vdW  Elec       q    Type
REMARK                         _______ _______ _______ _____ _____    ______ ____
ROOT
ATOM      1  CA  TYR A   2       2.696   2.152  20.545  0.00  0.00    +0.153 C 
ENDROOT
BRANCH   1   4
ATOM      2  C   ILE A   1       3.173   0.247  19.102  0.00  0.00    +0.238 C 
ATOM      3  O   ILE A   1       2.218  -0.401  19.542  0.00  0.00    -0.274 OA
ATOM      4  N   TYR A   2       3.406   1.514  19.436  0.00  0.00    -0.297 N 
ATOM      5  H   TYR A   2       4.107   2.062  18.898  0.00  0.00    +0.150 HD
BRANCH   2   6
ATOM      6  CA  ILE A   1       4.146  -0.385  18.097  0.00  0.00    +0.145 C 
BRANCH   6   7
ATOM      7  N   ILE A   1       4.358   0.452  16.914  0.00  0.00    -0.238 NA
ATOM      8  H   ILE A   1       5.333   0.691  16.643  0.00  0.00    +0.142 HD
ENDBRANCH   6   7
BRANCH   6   9
ATOM      9  CB  ILE A   1       5.502  -0.731  18.793  0.00  0.00    +0.025 C 
ATOM     10  CG2 ILE A   1       5.285  -1.338  20.188  0.00  0.00    +0.002 C 
BRANCH   9  11
ATOM     11  CG1 ILE A   1       6.367  -1.641  17.901  0.00  0.00    +0.002 C 
ATOM     12  CD1 ILE A   1       5.797  -3.034  17.628  0.00  0.00    +0.000 C 
ENDBRANCH   9  11
ENDBRANCH   6   9
ENDBRANCH   2   6
ENDBRANCH   1   4
BRANCH   1  13
ATOM     13  C   TYR A   2       1.433   2.934  20.176  0.00  0.00    +0.241 C 
ATOM     14  O   TYR A   2       0.588   3.176  21.041  0.00  0.00    -0.273 OA
ATOM     15  N   THR A   3       1.297   3.330  18.912  0.00  0.00    -0.296 N 
ATOM     16  H   THR A   3       1.990   3.032  18.196  0.00  0.00    +0.150 HD
BRANCH  15  17
ATOM     17  CA  THR A   3       0.167   4.189  18.529  0.00  0.00    +0.164 C 
BRANCH  17  18
ATOM     18  CB  THR A   3       0.607   5.640  18.152  0.00  0.00    +0.136 C 
ATOM     19  CG2 THR A   3       1.561   6.230  19.189  0.00  0.00    +0.034 C 
BRANCH  18  20
ATOM     20  OG1 THR A   3       1.217   5.652  16.855  0.00  0.00    -0.382 OA
ATOM     21  HG1 THR A   3       2.013   5.063  16.860  0.00  0.00    +0.210 HD
ENDBRANCH  18  20
ENDBRANCH  17  18
BRANCH  17  22
ATOM     22  C   THR A   3      -0.736   3.655  17.414  0.00  0.00    +0.229 C 
ATOM     23  O   THR A   3      -1.856   4.149  17.251  0.00  0.00    -0.286 OA
ENDBRANCH  17  22
ENDBRANCH  15  17
ENDBRANCH   1  13
BRANCH   1  24
ATOM     24  CB  TYR A   2       3.654   3.029  21.361  0.00  0.00    +0.055 C 
BRANCH  24  25
ATOM     25  CG  TYR A   2       4.687   2.228  22.117  0.00  0.00    -0.020 A 
ATOM     26  CD2 TYR A   2       4.335   1.486  23.248  0.00  0.00    -0.001 A 
ATOM     27  CE2 TYR A   2       5.284   0.740  23.942  0.00  0.00    +0.036 A 
ATOM     28  CZ  TYR A   2       6.596   0.730  23.501  0.00  0.00    +0.134 A 
ATOM     29  CE1 TYR A   2       6.968   1.459  22.385  0.00  0.00    +0.036 A 
ATOM     30  CD1 TYR A   2       6.016   2.200  21.699  0.00  0.00    -0.001 A 
BRANCH  28  31
ATOM     31  OH  TYR A   2       7.540   0.002  24.185  0.00  0.00    -0.506 OA
ATOM     32  HH  TYR A   2       7.940  -0.670  23.578  0.00  0.00    +0.292 HD
ENDBRANCH  28  31
ENDBRANCH  24  25
ENDBRANCH   1  24
TORSDOF 13
REMARK  Name = ../refined-set-2016/3ie3/3ie3_pocket.pdb
REMARK  134 active torsions:
REMARK  status: ('A' for Active; 'I' for Inactive)
REMARK    1  A    between atoms: _1  and  _3
REMARK    2  A    between atoms: _3  and  _4
REMARK    3  A    between atoms: _3  and  _6
REMARK    4  A    between atoms: _6  and  _7
REMARK    5  A    between atoms: _12  and  _13
REMARK    6  A    between atoms: _15  and  _17
REMARK    7  A    between atoms: _17  and  _18
REMARK    8  A    between atoms: _17  and  _20
REMARK    9  A    between atoms: _20  and  _21
REMARK   10  A    between atoms: _28  and  _29
REMARK   11  A    between atoms: _34  and  _36
REMARK   12  A    between atoms: _36  and  _37
REMARK   13  A    between atoms: _36  and  _39
REMARK   14  A    between atoms: _42  and  _44
REMARK   15  A    between atoms: _44  and  _45
REMARK   16  A    between atoms: _44  and  _47
REMARK   17  A    between atoms: _47  and  _48
REMARK   18  A    between atoms: _48  and  _49
REMARK   19  A    between atoms: _49  and  _50
REMARK   20  A    between atoms: _59  and  _61
REMARK   21  A    between atoms: _61  and  _62
REMARK   22  A    between atoms: _64  and  _66
REMARK   23  A    between atoms: _66  and  _67
REMARK   24  A    between atoms: _66  and  _69
REMARK   25  A    between atoms: _69  and  _70
REMARK   26  A    between atoms: _70  and  _71
REMARK   27  A    between atoms: _71  and  _72
REMARK   28  A    between atoms: _81  and  _83
REMARK   29  A    between atoms: _83  and  _84
REMARK   30  A    between atoms: _83  and  _86
REMARK   31  A    between atoms: _88  and  _90
REMARK   32  A    between atoms: _90  and  _91
REMARK   33  A    between atoms: _90  and  _93
REMARK   34  A    between atoms: _96  and  _98
REMARK   35  A    between atoms: _98  and  _99
REMARK   36  A    between atoms: _98  and  _101
REMARK   37  A    between atoms: _101  and  _102
REMARK   38  A    between atoms: _105  and  _107
REMARK   39  A    between atoms: _107  and  _108
REMARK   40  A    between atoms: _107  and  _110
REMARK   41  A    between atoms: _113  and  _115
REMARK   42  A    between atoms: _115  and  _116
REMARK   43  A    between atoms: _115  and  _118
REMARK   44  A    between atoms: _118  and  _119
REMARK   45  A    between atoms: _119  and  _120
REMARK   46  A    between atoms: _123  and  _125
REMARK   47  A    between atoms: _125  and  _126
REMARK   48  A    between atoms: _125  and  _128
REMARK   49  A    between atoms: _128  and  _129
REMARK   50  A    between atoms: _139  and  _141
REMARK   51  A    between atoms: _141  and  _142
REMARK   52  A    between atoms: _141  and  _144
REMARK   53  A    between atoms: _144  and  _145
REMARK   54  A    between atoms: _145  and  _146
REMARK   55  A    between atoms: _151  and  _153
REMARK   56  A    between atoms: _153  and  _154
REMARK   57  A    between atoms: _153  and  _156
REMARK   58  A    between atoms: _156  and  _157
REMARK   59  A    between atoms: _157  and  _158
REMARK   60  A    between atoms: _161  and  _163
REMARK   61  A    between atoms: _163  and  _164
REMARK   62  A    between atoms: _163  and  _166
REMARK   63  A    between atoms: _166  and  _167
REMARK   64  A    between atoms: _167  and  _168
REMARK   65  A    between atoms: _168  and  _169
REMARK   66  A    between atoms: _169  and  _170
REMARK   67  A    between atoms: _174  and  _176
REMARK   68  A    between atoms: _176  and  _177
REMARK   69  A    between atoms: _176  and  _179
REMARK   70  A    between atoms: _179  and  _180
REMARK   71  A    between atoms: _180  and  _181
REMARK   72  A    between atoms: _186  and  _188
REMARK   73  A    between atoms: _188  and  _189
REMARK   74  A    between atoms: _188  and  _191
REMARK   75  A    between atoms: _191  and  _192
REMARK   76  A    between atoms: _196  and  _197
REMARK   77  A    between atoms: _202  and  _204
REMARK   78  A    between atoms: _204  and  _205
REMARK   79  A    between atoms: _204  and  _207
REMARK   80  A    between atoms: _207  and  _208
REMARK   81  A    between atoms: _210  and  _212
REMARK   82  A    between atoms: _212  and  _213
REMARK   83  A    between atoms: _212  and  _215
REMARK   84  A    between atoms: _215  and  _216
REMARK   85  A    between atoms: _216  and  _217
REMARK   86  A    between atoms: _220  and  _222
REMARK   87  A    between atoms: _222  and  _223
REMARK   88  A    between atoms: _222  and  _225
REMARK   89  A    between atoms: _225  and  _226
REMARK   90  A    between atoms: _226  and  _227
REMARK   91  A    between atoms: _227  and  _228
REMARK   92  A    between atoms: _237  and  _239
REMARK   93  A    between atoms: _239  and  _240
REMARK   94  A    between atoms: _239  and  _242
REMARK   95  A    between atoms: _244  and  _246
REMARK   96  A    between atoms: _246  and  _247
REMARK   97  A    between atoms: _246  and  _249
REMARK   98  A    between atoms: _249  and  _250
REMARK   99  A    between atoms: _255  and  _256
REMARK  100  A    between atoms: _258  and  _260
REMARK  101  A    between atoms: _260  and  _261
REMARK  102  A    between atoms: _264  and  _266
REMARK  103  A    between atoms: _266  and  _267
REMARK  104  A    between atoms: _266  and  _269
REMARK  105  A    between atoms: _269  and  _270
REMARK  106  A    between atoms: _272  and  _274
REMARK  107  A    between atoms: _274  and  _275
REMARK  108  A    between atoms: _274  and  _277
REMARK  109  A    between atoms: _277  and  _278
REMARK  110  A    between atoms: _281  and  _283
REMARK  111  A    between atoms: _283  and  _284
REMARK  112  A    between atoms: _283  and  _286
REMARK  113  A    between atoms: _286  and  _287
REMARK  114  A    between atoms: _292  and  _293
REMARK  115  A    between atoms: _295  and  _297
REMARK  116  A    between atoms: _297  and  _298
REMARK  117  A    between atoms: _297  and  _300
REMARK  118  A    between atoms: _300  and  _301
REMARK  119  A    between atoms: _304  and  _306
REMARK  120  A    between atoms: _306  and  _307
REMARK  121  A    between atoms: _306  and  _309
REMARK  122  A    between atoms: _309  and  _310
REMARK  123  A    between atoms: _313  and  _315
REMARK  124  A    between atoms: _315  and  _316
REMARK  125  A    between atoms: _315  and  _318
REMARK  126  A    between atoms: _318  and  _319
REMARK  127  A    between atoms: _324  and  _326
REMARK  128  A    between atoms: _326  and  _327
REMARK  129  A    between atoms: _329  and  _331
REMARK  130  A    between atoms: _331  and  _332
REMARK  131  A    between atoms: _331  and  _334
REMARK  132  A    between atoms: _334  and  _335
REMARK  133  A    between atoms: _340  and  _342
REMARK  134  A    between atoms: _342  and  _343
REMARK                            x       y       z     vdW  Elec       q    Type
REMARK                         _______ _______ _______ _____ _____    ______ ____
ROOT
ATOM      1  C   ASN A   2       7.529  -3.361  25.312  0.00  0.00    +0.241 C 
ATOM      2  O   ASN A   2       7.418  -4.396  25.976  0.00  0.00    -0.273 OA
ATOM      3  N   GLY A   3       6.946  -2.213  25.649  0.00  0.00    -0.295 N 
ATOM      4  H   GLY A   3       7.000  -1.410  24.990  0.00  0.00    +0.150 HD
ENDROOT
BRANCH   3   5
ATOM      5  CA  GLY A   3       6.231  -2.041  26.915  0.00  0.00    +0.176 C 
BRANCH   5   6
ATOM      6  C   GLY A   3       4.737  -2.308  26.888  0.00  0.00    +0.243 C 
ATOM      7  O   GLY A   3       4.071  -2.208  27.924  0.00  0.00    -0.273 OA
ATOM      8  N   ASN A   4       4.212  -2.656  25.715  0.00  0.00    -0.297 N 
ATOM      9  H   ASN A   4       4.843  -2.779  24.897  0.00  0.00    +0.150 HD
BRANCH   8  10
ATOM     10  CA  ASN A   4       2.774  -2.871  25.541  0.00  0.00    +0.158 C 
BRANCH  10  11
ATOM     11  C   ASN A   4       2.418  -4.277  25.039  0.00  0.00    +0.241 C 
ATOM     12  N   GLY A   5       3.391  -5.184  25.096  0.00  0.00    -0.296 N 
ATOM     13  H   GLY A   5       4.329  -4.892  25.438  0.00  0.00    +0.150 HD
ATOM     14  O   ASN A   4       1.292  -4.523  24.599  0.00  0.00    -0.273 OA
BRANCH  12  15
ATOM     15  CA  GLY A   5       3.188  -6.576  24.695  0.00  0.00    +0.163 C 
BRANCH  15  16
ATOM     16  C   GLY A   5       3.016  -6.798  23.203  0.00  0.00    +0.229 C 
ATOM     17  O   GLY A   5       2.550  -7.858  22.781  0.00  0.00    -0.286 OA
ENDBRANCH  15  16
ENDBRANCH  12  15
ENDBRANCH  10  11
BRANCH  10  18
ATOM     18  CB  ASN A   4       2.183  -1.794  24.616  0.00  0.00    +0.114 C 
BRANCH  18  19
ATOM     19  CG  ASN A   4       2.672  -1.913  23.174  0.00  0.00    +0.222 C 
ATOM     20  OD1 ASN A   4       3.640  -2.618  22.883  0.00  0.00    -0.275 OA
ATOM     21  ND2 ASN A   4       1.999  -1.216  22.266  0.00  0.00    -0.329 N 
ATOM     22 HD21 ASN A   4       1.187  -0.633  22.554  0.00  0.00    +0.145 HD
ATOM     23 HD22 ASN A   4       2.283  -1.253  21.266  0.00  0.00    +0.145 HD
ENDBRANCH  18  19
ENDBRANCH  10  18
ENDBRANCH   8  10
ENDBRANCH   5   6
ENDBRANCH   3   5
BRANCH   1  24
ATOM     24  CA  ASN A   2       8.367  -3.348  24.031  0.00  0.00    +0.158 C 
BRANCH  24  26
ATOM     25  C   ILE A   1      10.404  -4.663  23.662  0.00  0.00    +0.238 C 
ATOM     26  N   ASN A   2       9.085  -4.600  23.828  0.00  0.00    -0.297 N 
ATOM     27  H   ASN A   2       8.541  -5.486  23.812  0.00  0.00    +0.150 HD
ATOM     28  O   ILE A   1      11.152  -3.686  23.754  0.00  0.00    -0.274 OA
BRANCH  25  29
ATOM     29  CA  ILE A   1      10.967  -6.052  23.364  0.00  0.00    +0.145 C 
BRANCH  29  30
ATOM     30  N   ILE A   1      10.355  -7.046  24.247  0.00  0.00    -0.238 NA
ATOM     31  H   ILE A   1       9.779  -7.805  23.831  0.00  0.00    +0.142 HD
ENDBRANCH  29  30
BRANCH  29  32
ATOM     32  CB  ILE A   1      10.758  -6.417  21.874  0.00  0.00    +0.025 C 
ATOM     33  CG2 ILE A   1      11.211  -5.262  20.960  0.00  0.00    +0.002 C 
BRANCH  32  34
ATOM     34  CG1 ILE A   1      11.498  -7.719  21.541  0.00  0.00    +0.002 C 
ATOM     35  CD1 ILE A   1      11.073  -8.378  20.239  0.00  0.00    +0.000 C 
ENDBRANCH  32  34
ENDBRANCH  29  32
ENDBRANCH  25  29
ENDBRANCH  24  26
BRANCH  24  36
ATOM     36  CB  ASN A   2       7.500  -3.051  22.805  0.00  0.00    +0.114 C 
BRANCH  36  37
ATOM     37  CG  ASN A   2       8.319  -2.952  21.530  0.00  0.00    +0.222 C 
ATOM     38  OD1 ASN A   2       9.258  -2.158  21.445  0.00  0.00    -0.275 OA
ATOM     39  ND2 ASN A   2       7.974  -3.762  20.536  0.00  0.00    -0.329 N 
ATOM     40 HD21 ASN A   2       7.174  -4.416  20.652  0.00  0.00    +0.145 HD
ATOM     41 HD22 ASN A   2       8.504  -3.742  19.641  0.00  0.00    +0.145 HD
ENDBRANCH  36  37
ENDBRANCH  24  36
ENDBRANCH   1  24
TORSDOF 16
REMARK  Name = ../refined-set-2016/3ie3/3ie3_pocket.pdb
REMARK  134 active torsions:
REMARK  status: ('A' for Active; 'I' for Inactive)
REMARK    1  A    between atoms: _1  and  _3
REMARK    2  A    between atoms: _3  and  _4
REMARK    3  A    between atoms: _3  and  _6
REMARK    4  A    between atoms: _6  and  _7
REMARK    5  A    between atoms: _12  and  _13
REMARK    6  A    between atoms: _15  and  _17
REMARK    7  A    between atoms: _17  and  _18
REMARK    8  A    between atoms: _17  and  _20
REMARK    9  A    between atoms: _20  and  _21
REMARK   10  A    between atoms: _28  and  _29
REMARK   11  A    between atoms: _34  and  _36
REMARK   12  A    between atoms: _36  and  _37
REMARK   13  A    between atoms: _36  and  _39
REMARK   14  A    between atoms: _42  and  _44
REMARK   15  A    between atoms: _44  and  _45
REMARK   16  A    between atoms: _44  and  _47
REMARK   17  A    between atoms: _47  and  _48
REMARK   18  A    between atoms: _48  and  _49
REMARK   19  A    between atoms: _49  and  _50
REMARK   20  A    between atoms: _59  and  _61
REMARK   21  A    between atoms: _61  and  _62
REMARK   22  A    between atoms: _64  and  _66
REMARK   23  A    between atoms: _66  and  _67
REMARK   24  A    between atoms: _66  and  _69
REMARK   25  A    between atoms: _69  and  _70
REMARK   26  A    between atoms: _70  and  _71
REMARK   27  A    between atoms: _71  and  _72
REMARK   28  A    between atoms: _81  and  _83
REMARK   29  A    between atoms: _83  and  _84
REMARK   30  A    between atoms: _83  and  _86
REMARK   31  A    between atoms: _88  and  _90
REMARK   32  A    between atoms: _90  and  _91
REMARK   33  A    between atoms: _90  and  _93
REMARK   34  A    between atoms: _96  and  _98
REMARK   35  A    between atoms: _98  and  _99
REMARK   36  A    between atoms: _98  and  _101
REMARK   37  A    between atoms: _101  and  _102
REMARK   38  A    between atoms: _105  and  _107
REMARK   39  A    between atoms: _107  and  _108
REMARK   40  A    between atoms: _107  and  _110
REMARK   41  A    between atoms: _113  and  _115
REMARK   42  A    between atoms: _115  and  _116
REMARK   43  A    between atoms: _115  and  _118
REMARK   44  A    between atoms: _118  and  _119
REMARK   45  A    between atoms: _119  and  _120
REMARK   46  A    between atoms: _123  and  _125
REMARK   47  A    between atoms: _125  and  _126
REMARK   48  A    between atoms: _125  and  _128
REMARK   49  A    between atoms: _128  and  _129
REMARK   50  A    between atoms: _139  and  _141
REMARK   51  A    between atoms: _141  and  _142
REMARK   52  A    between atoms: _141  and  _144
REMARK   53  A    between atoms: _144  and  _145
REMARK   54  A    between atoms: _145  and  _146
REMARK   55  A    between atoms: _151  and  _153
REMARK   56  A    between atoms: _153  and  _154
REMARK   57  A    between atoms: _153  and  _156
REMARK   58  A    between atoms: _156  and  _157
REMARK   59  A    between atoms: _157  and  _158
REMARK   60  A    between atoms: _161  and  _163
REMARK   61  A    between atoms: _163  and  _164
REMARK   62  A    between atoms: _163  and  _166
REMARK   63  A    between atoms: _166  and  _167
REMARK   64  A    between atoms: _167  and  _168
REMARK   65  A    between atoms: _168  and  _169
REMARK   66  A    between atoms: _169  and  _170
REMARK   67  A    between atoms: _174  and  _176
REMARK   68  A    between atoms: _176  and  _177
REMARK   69  A    between atoms: _176  and  _179
REMARK   70  A    between atoms: _179  and  _180
REMARK   71  A    between atoms: _180  and  _181
REMARK   72  A    between atoms: _186  and  _188
REMARK   73  A    between atoms: _188  and  _189
REMARK   74  A    between atoms: _188  and  _191
REMARK   75  A    between atoms: _191  and  _192
REMARK   76  A    between atoms: _196  and  _197
REMARK   77  A    between atoms: _202  and  _204
REMARK   78  A    between atoms: _204  and  _205
REMARK   79  A    between atoms: _204  and  _207
REMARK   80  A    between atoms: _207  and  _208
REMARK   81  A    between atoms: _210  and  _212
REMARK   82  A    between atoms: _212  and  _213
REMARK   83  A    between atoms: _212  and  _215
REMARK   84  A    between atoms: _215  and  _216
REMARK   85  A    between atoms: _216  and  _217
REMARK   86  A    between atoms: _220  and  _222
REMARK   87  A    between atoms: _222  and  _223
REMARK   88  A    between atoms: _222  and  _225
REMARK   89  A    between atoms: _225  and  _226
REMARK   90  A    between atoms: _226  and  _227
REMARK   91  A    between atoms: _227  and  _228
REMARK   92  A    between atoms: _237  and  _239
REMARK   93  A    between atoms: _239  and  _240
REMARK   94  A    between atoms: _239  and  _242
REMARK   95  A    between atoms: _244  and  _246
REMARK   96  A    between atoms: _246  and  _247
REMARK   97  A    between atoms: _246  and  _249
REMARK   98  A    between atoms: _249  and  _250
REMARK   99  A    between atoms: _255  and  _256
REMARK  100  A    between atoms: _258  and  _260
REMARK  101  A    between atoms: _260  and  _261
REMARK  102  A    between atoms: _264  and  _266
REMARK  103  A    between atoms: _266  and  _267
REMARK  104  A    between atoms: _266  and  _269
REMARK  105  A    between atoms: _269  and  _270
REMARK  106  A    between atoms: _272  and  _274
REMARK  107  A    between atoms: _274  and  _275
REMARK  108  A    between atoms: _274  and  _277
REMARK  109  A    between atoms: _277  and  _278
REMARK  110  A    between atoms: _281  and  _283
REMARK  111  A    between atoms: _283  and  _284
REMARK  112  A    between atoms: _283  and  _286
REMARK  113  A    between atoms: _286  and  _287
REMARK  114  A    between atoms: _292  and  _293
REMARK  115  A    between atoms: _295  and  _297
REMARK  116  A    between atoms: _297  and  _298
REMARK  117  A    between atoms: _297  and  _300
REMARK  118  A    between atoms: _300  and  _301
REMARK  119  A    between atoms: _304  and  _306
REMARK  120  A    between atoms: _306  and  _307
REMARK  121  A    between atoms: _306  and  _309
REMARK  122  A    between atoms: _309  and  _310
REMARK  123  A    between atoms: _313  and  _315
REMARK  124  A    between atoms: _315  and  _316
REMARK  125  A    between atoms: _315  and  _318
REMARK  126  A    between atoms: _318  and  _319
REMARK  127  A    between atoms: _324  and  _326
REMARK  128  A    between atoms: _326  and  _327
REMARK  129  A    between atoms: _329  and  _331
REMARK  130  A    between atoms: _331  and  _332
REMARK  131  A    between atoms: _331  and  _334
REMARK  132  A    between atoms: _334  and  _335
REMARK  133  A    between atoms: _340  and  _342
REMARK  134  A    between atoms: _342  and  _343
REMARK                            x       y       z     vdW  Elec       q    Type
REMARK                         _______ _______ _______ _____ _____    ______ ____
ROOT
ATOM      1  O   HOH     1       0.044   0.607  22.997  0.00  0.00    +0.000 OA
ENDROOT
TORSDOF 0
REMARK  Name = ../refined-set-2016/3ie3/3ie3_pocket.pdb
REMARK  134 active torsions:
REMARK  status: ('A' for Active; 'I' for Inactive)
REMARK    1  A    between atoms: _1  and  _3
REMARK    2  A    between atoms: _3  and  _4
REMARK    3  A    between atoms: _3  and  _6
REMARK    4  A    between atoms: _6  and  _7
REMARK    5  A    between atoms: _12  and  _13
REMARK    6  A    between atoms: _15  and  _17
REMARK    7  A    between atoms: _17  and  _18
REMARK    8  A    between atoms: _17  and  _20
REMARK    9  A    between atoms: _20  and  _21
REMARK   10  A    between atoms: _28  and  _29
REMARK   11  A    between atoms: _34  and  _36
REMARK   12  A    between atoms: _36  and  _37
REMARK   13  A    between atoms: _36  and  _39
REMARK   14  A    between atoms: _42  and  _44
REMARK   15  A    between atoms: _44  and  _45
REMARK   16  A    between atoms: _44  and  _47
REMARK   17  A    between atoms: _47  and  _48
REMARK   18  A    between atoms: _48  and  _49
REMARK   19  A    between atoms: _49  and  _50
REMARK   20  A    between atoms: _59  and  _61
REMARK   21  A    between atoms: _61  and  _62
REMARK   22  A    between atoms: _64  and  _66
REMARK   23  A    between atoms: _66  and  _67
REMARK   24  A    between atoms: _66  and  _69
REMARK   25  A    between atoms: _69  and  _70
REMARK   26  A    between atoms: _70  and  _71
REMARK   27  A    between atoms: _71  and  _72
REMARK   28  A    between atoms: _81  and  _83
REMARK   29  A    between atoms: _83  and  _84
REMARK   30  A    between atoms: _83  and  _86
REMARK   31  A    between atoms: _88  and  _90
REMARK   32  A    between atoms: _90  and  _91
REMARK   33  A    between atoms: _90  and  _93
REMARK   34  A    between atoms: _96  and  _98
REMARK   35  A    between atoms: _98  and  _99
REMARK   36  A    between atoms: _98  and  _101
REMARK   37  A    between atoms: _101  and  _102
REMARK   38  A    between atoms: _105  and  _107
REMARK   39  A    between atoms: _107  and  _108
REMARK   40  A    between atoms: _107  and  _110
REMARK   41  A    between atoms: _113  and  _115
REMARK   42  A    between atoms: _115  and  _116
REMARK   43  A    between atoms: _115  and  _118
REMARK   44  A    between atoms: _118  and  _119
REMARK   45  A    between atoms: _119  and  _120
REMARK   46  A    between atoms: _123  and  _125
REMARK   47  A    between atoms: _125  and  _126
REMARK   48  A    between atoms: _125  and  _128
REMARK   49  A    between atoms: _128  and  _129
REMARK   50  A    between atoms: _139  and  _141
REMARK   51  A    between atoms: _141  and  _142
REMARK   52  A    between atoms: _141  and  _144
REMARK   53  A    between atoms: _144  and  _145
REMARK   54  A    between atoms: _145  and  _146
REMARK   55  A    between atoms: _151  and  _153
REMARK   56  A    between atoms: _153  and  _154
REMARK   57  A    between atoms: _153  and  _156
REMARK   58  A    between atoms: _156  and  _157
REMARK   59  A    between atoms: _157  and  _158
REMARK   60  A    between atoms: _161  and  _163
REMARK   61  A    between atoms: _163  and  _164
REMARK   62  A    between atoms: _163  and  _166
REMARK   63  A    between atoms: _166  and  _167
REMARK   64  A    between atoms: _167  and  _168
REMARK   65  A    between atoms: _168  and  _169
REMARK   66  A    between atoms: _169  and  _170
REMARK   67  A    between atoms: _174  and  _176
REMARK   68  A    between atoms: _176  and  _177
REMARK   69  A    between atoms: _176  and  _179
REMARK   70  A    between atoms: _179  and  _180
REMARK   71  A    between atoms: _180  and  _181
REMARK   72  A    between atoms: _186  and  _188
REMARK   73  A    between atoms: _188  and  _189
REMARK   74  A    between atoms: _188  and  _191
REMARK   75  A    between atoms: _191  and  _192
REMARK   76  A    between atoms: _196  and  _197
REMARK   77  A    between atoms: _202  and  _204
REMARK   78  A    between atoms: _204  and  _205
REMARK   79  A    between atoms: _204  and  _207
REMARK   80  A    between atoms: _207  and  _208
REMARK   81  A    between atoms: _210  and  _212
REMARK   82  A    between atoms: _212  and  _213
REMARK   83  A    between atoms: _212  and  _215
REMARK   84  A    between atoms: _215  and  _216
REMARK   85  A    between atoms: _216  and  _217
REMARK   86  A    between atoms: _220  and  _222
REMARK   87  A    between atoms: _222  and  _223
REMARK   88  A    between atoms: _222  and  _225
REMARK   89  A    between atoms: _225  and  _226
REMARK   90  A    between atoms: _226  and  _227
REMARK   91  A    between atoms: _227  and  _228
REMARK   92  A    between atoms: _237  and  _239
REMARK   93  A    between atoms: _239  and  _240
REMARK   94  A    between atoms: _239  and  _242
REMARK   95  A    between atoms: _244  and  _246
REMARK   96  A    between atoms: _246  and  _247
REMARK   97  A    between atoms: _246  and  _249
REMARK   98  A    between atoms: _249  and  _250
REMARK   99  A    between atoms: _255  and  _256
REMARK  100  A    between atoms: _258  and  _260
REMARK  101  A    between atoms: _260  and  _261
REMARK  102  A    between atoms: _264  and  _266
REMARK  103  A    between atoms: _266  and  _267
REMARK  104  A    between atoms: _266  and  _269
REMARK  105  A    between atoms: _269  and  _270
REMARK  106  A    between atoms: _272  and  _274
REMARK  107  A    between atoms: _274  and  _275
REMARK  108  A    between atoms: _274  and  _277
REMARK  109  A    between atoms: _277  and  _278
REMARK  110  A    between atoms: _281  and  _283
REMARK  111  A    between atoms: _283  and  _284
REMARK  112  A    between atoms: _283  and  _286
REMARK  113  A    between atoms: _286  and  _287
REMARK  114  A    between atoms: _292  and  _293
REMARK  115  A    between atoms: _295  and  _297
REMARK  116  A    between atoms: _297  and  _298
REMARK  117  A    between atoms: _297  and  _300
REMARK  118  A    between atoms: _300  and  _301
REMARK  119  A    between atoms: _304  and  _306
REMARK  120  A    between atoms: _306  and  _307
REMARK  121  A    between atoms: _306  and  _309
REMARK  122  A    between atoms: _309  and  _310
REMARK  123  A    between atoms: _313  and  _315
REMARK  124  A    between atoms: _315  and  _316
REMARK  125  A    between atoms: _315  and  _318
REMARK  126  A    between atoms: _318  and  _319
REMARK  127  A    between atoms: _324  and  _326
REMARK  128  A    between atoms: _326  and  _327
REMARK  129  A    between atoms: _329  and  _331
REMARK  130  A    between atoms: _331  and  _332
REMARK  131  A    between atoms: _331  and  _334
REMARK  132  A    between atoms: _334  and  _335
REMARK  133  A    between atoms: _340  and  _342
REMARK  134  A    between atoms: _342  and  _343
REMARK                            x       y       z     vdW  Elec       q    Type
REMARK                         _______ _______ _______ _____ _____    ______ ____
ROOT
ATOM      1  O   HOH     1      12.092  -1.785  20.974  0.00  0.00    +0.000 OA
ENDROOT
TORSDOF 0
REMARK  Name = ../refined-set-2016/3ie3/3ie3_pocket.pdb
REMARK  134 active torsions:
REMARK  status: ('A' for Active; 'I' for Inactive)
REMARK    1  A    between atoms: _1  and  _3
REMARK    2  A    between atoms: _3  and  _4
REMARK    3  A    between atoms: _3  and  _6
REMARK    4  A    between atoms: _6  and  _7
REMARK    5  A    between atoms: _12  and  _13
REMARK    6  A    between atoms: _15  and  _17
REMARK    7  A    between atoms: _17  and  _18
REMARK    8  A    between atoms: _17  and  _20
REMARK    9  A    between atoms: _20  and  _21
REMARK   10  A    between atoms: _28  and  _29
REMARK   11  A    between atoms: _34  and  _36
REMARK   12  A    between atoms: _36  and  _37
REMARK   13  A    between atoms: _36  and  _39
REMARK   14  A    between atoms: _42  and  _44
REMARK   15  A    between atoms: _44  and  _45
REMARK   16  A    between atoms: _44  and  _47
REMARK   17  A    between atoms: _47  and  _48
REMARK   18  A    between atoms: _48  and  _49
REMARK   19  A    between atoms: _49  and  _50
REMARK   20  A    between atoms: _59  and  _61
REMARK   21  A    between atoms: _61  and  _62
REMARK   22  A    between atoms: _64  and  _66
REMARK   23  A    between atoms: _66  and  _67
REMARK   24  A    between atoms: _66  and  _69
REMARK   25  A    between atoms: _69  and  _70
REMARK   26  A    between atoms: _70  and  _71
REMARK   27  A    between atoms: _71  and  _72
REMARK   28  A    between atoms: _81  and  _83
REMARK   29  A    between atoms: _83  and  _84
REMARK   30  A    between atoms: _83  and  _86
REMARK   31  A    between atoms: _88  and  _90
REMARK   32  A    between atoms: _90  and  _91
REMARK   33  A    between atoms: _90  and  _93
REMARK   34  A    between atoms: _96  and  _98
REMARK   35  A    between atoms: _98  and  _99
REMARK   36  A    between atoms: _98  and  _101
REMARK   37  A    between atoms: _101  and  _102
REMARK   38  A    between atoms: _105  and  _107
REMARK   39  A    between atoms: _107  and  _108
REMARK   40  A    between atoms: _107  and  _110
REMARK   41  A    between atoms: _113  and  _115
REMARK   42  A    between atoms: _115  and  _116
REMARK   43  A    between atoms: _115  and  _118
REMARK   44  A    between atoms: _118  and  _119
REMARK   45  A    between atoms: _119  and  _120
REMARK   46  A    between atoms: _123  and  _125
REMARK   47  A    between atoms: _125  and  _126
REMARK   48  A    between atoms: _125  and  _128
REMARK   49  A    between atoms: _128  and  _129
REMARK   50  A    between atoms: _139  and  _141
REMARK   51  A    between atoms: _141  and  _142
REMARK   52  A    between atoms: _141  and  _144
REMARK   53  A    between atoms: _144  and  _145
REMARK   54  A    between atoms: _145  and  _146
REMARK   55  A    between atoms: _151  and  _153
REMARK   56  A    between atoms: _153  and  _154
REMARK   57  A    between atoms: _153  and  _156
REMARK   58  A    between atoms: _156  and  _157
REMARK   59  A    between atoms: _157  and  _158
REMARK   60  A    between atoms: _161  and  _163
REMARK   61  A    between atoms: _163  and  _164
REMARK   62  A    between atoms: _163  and  _166
REMARK   63  A    between atoms: _166  and  _167
REMARK   64  A    between atoms: _167  and  _168
REMARK   65  A    between atoms: _168  and  _169
REMARK   66  A    between atoms: _169  and  _170
REMARK   67  A    between atoms: _174  and  _176
REMARK   68  A    between atoms: _176  and  _177
REMARK   69  A    between atoms: _176  and  _179
REMARK   70  A    between atoms: _179  and  _180
REMARK   71  A    between atoms: _180  and  _181
REMARK   72  A    between atoms: _186  and  _188
REMARK   73  A    between atoms: _188  and  _189
REMARK   74  A    between atoms: _188  and  _191
REMARK   75  A    between atoms: _191  and  _192
REMARK   76  A    between atoms: _196  and  _197
REMARK   77  A    between atoms: _202  and  _204
REMARK   78  A    between atoms: _204  and  _205
REMARK   79  A    between atoms: _204  and  _207
REMARK   80  A    between atoms: _207  and  _208
REMARK   81  A    between atoms: _210  and  _212
REMARK   82  A    between atoms: _212  and  _213
REMARK   83  A    between atoms: _212  and  _215
REMARK   84  A    between atoms: _215  and  _216
REMARK   85  A    between atoms: _216  and  _217
REMARK   86  A    between atoms: _220  and  _222
REMARK   87  A    between atoms: _222  and  _223
REMARK   88  A    between atoms: _222  and  _225
REMARK   89  A    between atoms: _225  and  _226
REMARK   90  A    between atoms: _226  and  _227
REMARK   91  A    between atoms: _227  and  _228
REMARK   92  A    between atoms: _237  and  _239
REMARK   93  A    between atoms: _239  and  _240
REMARK   94  A    between atoms: _239  and  _242
REMARK   95  A    between atoms: _244  and  _246
REMARK   96  A    between atoms: _246  and  _247
REMARK   97  A    between atoms: _246  and  _249
REMARK   98  A    between atoms: _249  and  _250
REMARK   99  A    between atoms: _255  and  _256
REMARK  100  A    between atoms: _258  and  _260
REMARK  101  A    between atoms: _260  and  _261
REMARK  102  A    between atoms: _264  and  _266
REMARK  103  A    between atoms: _266  and  _267
REMARK  104  A    between atoms: _266  and  _269
REMARK  105  A    between atoms: _269  and  _270
REMARK  106  A    between atoms: _272  and  _274
REMARK  107  A    between atoms: _274  and  _275
REMARK  108  A    between atoms: _274  and  _277
REMARK  109  A    between atoms: _277  and  _278
REMARK  110  A    between atoms: _281  and  _283
REMARK  111  A    between atoms: _283  and  _284
REMARK  112  A    between atoms: _283  and  _286
REMARK  113  A    between atoms: _286  and  _287
REMARK  114  A    between atoms: _292  and  _293
REMARK  115  A    between atoms: _295  and  _297
REMARK  116  A    between atoms: _297  and  _298
REMARK  117  A    between atoms: _297  and  _300
REMARK  118  A    between atoms: _300  and  _301
REMARK  119  A    between atoms: _304  and  _306
REMARK  120  A    between atoms: _306  and  _307
REMARK  121  A    between atoms: _306  and  _309
REMARK  122  A    between atoms: _309  and  _310
REMARK  123  A    between atoms: _313  and  _315
REMARK  124  A    between atoms: _315  and  _316
REMARK  125  A    between atoms: _315  and  _318
REMARK  126  A    between atoms: _318  and  _319
REMARK  127  A    between atoms: _324  and  _326
REMARK  128  A    between atoms: _326  and  _327
REMARK  129  A    between atoms: _329  and  _331
REMARK  130  A    between atoms: _331  and  _332
REMARK  131  A    between atoms: _331  and  _334
REMARK  132  A    between atoms: _334  and  _335
REMARK  133  A    between atoms: _340  and  _342
REMARK  134  A    between atoms: _342  and  _343
REMARK                            x       y       z     vdW  Elec       q    Type
REMARK                         _______ _______ _______ _____ _____    ______ ____
ROOT
ATOM      1  O   HOH     1       9.997  -0.005  23.148  0.00  0.00    +0.000 OA
ENDROOT
TORSDOF 0
REMARK  Name = ../refined-set-2016/3ie3/3ie3_pocket.pdb
REMARK  134 active torsions:
REMARK  status: ('A' for Active; 'I' for Inactive)
REMARK    1  A    between atoms: _1  and  _3
REMARK    2  A    between atoms: _3  and  _4
REMARK    3  A    between atoms: _3  and  _6
REMARK    4  A    between atoms: _6  and  _7
REMARK    5  A    between atoms: _12  and  _13
REMARK    6  A    between atoms: _15  and  _17
REMARK    7  A    between atoms: _17  and  _18
REMARK    8  A    between atoms: _17  and  _20
REMARK    9  A    between atoms: _20  and  _21
REMARK   10  A    between atoms: _28  and  _29
REMARK   11  A    between atoms: _34  and  _36
REMARK   12  A    between atoms: _36  and  _37
REMARK   13  A    between atoms: _36  and  _39
REMARK   14  A    between atoms: _42  and  _44
REMARK   15  A    between atoms: _44  and  _45
REMARK   16  A    between atoms: _44  and  _47
REMARK   17  A    between atoms: _47  and  _48
REMARK   18  A    between atoms: _48  and  _49
REMARK   19  A    between atoms: _49  and  _50
REMARK   20  A    between atoms: _59  and  _61
REMARK   21  A    between atoms: _61  and  _62
REMARK   22  A    between atoms: _64  and  _66
REMARK   23  A    between atoms: _66  and  _67
REMARK   24  A    between atoms: _66  and  _69
REMARK   25  A    between atoms: _69  and  _70
REMARK   26  A    between atoms: _70  and  _71
REMARK   27  A    between atoms: _71  and  _72
REMARK   28  A    between atoms: _81  and  _83
REMARK   29  A    between atoms: _83  and  _84
REMARK   30  A    between atoms: _83  and  _86
REMARK   31  A    between atoms: _88  and  _90
REMARK   32  A    between atoms: _90  and  _91
REMARK   33  A    between atoms: _90  and  _93
REMARK   34  A    between atoms: _96  and  _98
REMARK   35  A    between atoms: _98  and  _99
REMARK   36  A    between atoms: _98  and  _101
REMARK   37  A    between atoms: _101  and  _102
REMARK   38  A    between atoms: _105  and  _107
REMARK   39  A    between atoms: _107  and  _108
REMARK   40  A    between atoms: _107  and  _110
REMARK   41  A    between atoms: _113  and  _115
REMARK   42  A    between atoms: _115  and  _116
REMARK   43  A    between atoms: _115  and  _118
REMARK   44  A    between atoms: _118  and  _119
REMARK   45  A    between atoms: _119  and  _120
REMARK   46  A    between atoms: _123  and  _125
REMARK   47  A    between atoms: _125  and  _126
REMARK   48  A    between atoms: _125  and  _128
REMARK   49  A    between atoms: _128  and  _129
REMARK   50  A    between atoms: _139  and  _141
REMARK   51  A    between atoms: _141  and  _142
REMARK   52  A    between atoms: _141  and  _144
REMARK   53  A    between atoms: _144  and  _145
REMARK   54  A    between atoms: _145  and  _146
REMARK   55  A    between atoms: _151  and  _153
REMARK   56  A    between atoms: _153  and  _154
REMARK   57  A    between atoms: _153  and  _156
REMARK   58  A    between atoms: _156  and  _157
REMARK   59  A    between atoms: _157  and  _158
REMARK   60  A    between atoms: _161  and  _163
REMARK   61  A    between atoms: _163  and  _164
REMARK   62  A    between atoms: _163  and  _166
REMARK   63  A    between atoms: _166  and  _167
REMARK   64  A    between atoms: _167  and  _168
REMARK   65  A    between atoms: _168  and  _169
REMARK   66  A    between atoms: _169  and  _170
REMARK   67  A    between atoms: _174  and  _176
REMARK   68  A    between atoms: _176  and  _177
REMARK   69  A    between atoms: _176  and  _179
REMARK   70  A    between atoms: _179  and  _180
REMARK   71  A    between atoms: _180  and  _181
REMARK   72  A    between atoms: _186  and  _188
REMARK   73  A    between atoms: _188  and  _189
REMARK   74  A    between atoms: _188  and  _191
REMARK   75  A    between atoms: _191  and  _192
REMARK   76  A    between atoms: _196  and  _197
REMARK   77  A    between atoms: _202  and  _204
REMARK   78  A    between atoms: _204  and  _205
REMARK   79  A    between atoms: _204  and  _207
REMARK   80  A    between atoms: _207  and  _208
REMARK   81  A    between atoms: _210  and  _212
REMARK   82  A    between atoms: _212  and  _213
REMARK   83  A    between atoms: _212  and  _215
REMARK   84  A    between atoms: _215  and  _216
REMARK   85  A    between atoms: _216  and  _217
REMARK   86  A    between atoms: _220  and  _222
REMARK   87  A    between atoms: _222  and  _223
REMARK   88  A    between atoms: _222  and  _225
REMARK   89  A    between atoms: _225  and  _226
REMARK   90  A    between atoms: _226  and  _227
REMARK   91  A    between atoms: _227  and  _228
REMARK   92  A    between atoms: _237  and  _239
REMARK   93  A    between atoms: _239  and  _240
REMARK   94  A    between atoms: _239  and  _242
REMARK   95  A    between atoms: _244  and  _246
REMARK   96  A    between atoms: _246  and  _247
REMARK   97  A    between atoms: _246  and  _249
REMARK   98  A    between atoms: _249  and  _250
REMARK   99  A    between atoms: _255  and  _256
REMARK  100  A    between atoms: _258  and  _260
REMARK  101  A    between atoms: _260  and  _261
REMARK  102  A    between atoms: _264  and  _266
REMARK  103  A    between atoms: _266  and  _267
REMARK  104  A    between atoms: _266  and  _269
REMARK  105  A    between atoms: _269  and  _270
REMARK  106  A    between atoms: _272  and  _274
REMARK  107  A    between atoms: _274  and  _275
REMARK  108  A    between atoms: _274  and  _277
REMARK  109  A    between atoms: _277  and  _278
REMARK  110  A    between atoms: _281  and  _283
REMARK  111  A    between atoms: _283  and  _284
REMARK  112  A    between atoms: _283  and  _286
REMARK  113  A    between atoms: _286  and  _287
REMARK  114  A    between atoms: _292  and  _293
REMARK  115  A    between atoms: _295  and  _297
REMARK  116  A    between atoms: _297  and  _298
REMARK  117  A    between atoms: _297  and  _300
REMARK  118  A    between atoms: _300  and  _301
REMARK  119  A    between atoms: _304  and  _306
REMARK  120  A    between atoms: _306  and  _307
REMARK  121  A    between atoms: _306  and  _309
REMARK  122  A    between atoms: _309  and  _310
REMARK  123  A    between atoms: _313  and  _315
REMARK  124  A    between atoms: _315  and  _316
REMARK  125  A    between atoms: _315  and  _318
REMARK  126  A    between atoms: _318  and  _319
REMARK  127  A    between atoms: _324  and  _326
REMARK  128  A    between atoms: _326  and  _327
REMARK  129  A    between atoms: _329  and  _331
REMARK  130  A    between atoms: _331  and  _332
REMARK  131  A    between atoms: _331  and  _334
REMARK  132  A    between atoms: _334  and  _335
REMARK  133  A    between atoms: _340  and  _342
REMARK  134  A    between atoms: _342  and  _343
REMARK                            x       y       z     vdW  Elec       q    Type
REMARK                         _______ _______ _______ _____ _____    ______ ____
ROOT
ATOM      1  O   HOH     1       6.414   7.268  26.019  0.00  0.00    +0.000 OA
ENDROOT
TORSDOF 0
REMARK  Name = ../refined-set-2016/3ie3/3ie3_pocket.pdb
REMARK  134 active torsions:
REMARK  status: ('A' for Active; 'I' for Inactive)
REMARK    1  A    between atoms: _1  and  _3
REMARK    2  A    between atoms: _3  and  _4
REMARK    3  A    between atoms: _3  and  _6
REMARK    4  A    between atoms: _6  and  _7
REMARK    5  A    between atoms: _12  and  _13
REMARK    6  A    between atoms: _15  and  _17
REMARK    7  A    between atoms: _17  and  _18
REMARK    8  A    between atoms: _17  and  _20
REMARK    9  A    between atoms: _20  and  _21
REMARK   10  A    between atoms: _28  and  _29
REMARK   11  A    between atoms: _34  and  _36
REMARK   12  A    between atoms: _36  and  _37
REMARK   13  A    between atoms: _36  and  _39
REMARK   14  A    between atoms: _42  and  _44
REMARK   15  A    between atoms: _44  and  _45
REMARK   16  A    between atoms: _44  and  _47
REMARK   17  A    between atoms: _47  and  _48
REMARK   18  A    between atoms: _48  and  _49
REMARK   19  A    between atoms: _49  and  _50
REMARK   20  A    between atoms: _59  and  _61
REMARK   21  A    between atoms: _61  and  _62
REMARK   22  A    between atoms: _64  and  _66
REMARK   23  A    between atoms: _66  and  _67
REMARK   24  A    between atoms: _66  and  _69
REMARK   25  A    between atoms: _69  and  _70
REMARK   26  A    between atoms: _70  and  _71
REMARK   27  A    between atoms: _71  and  _72
REMARK   28  A    between atoms: _81  and  _83
REMARK   29  A    between atoms: _83  and  _84
REMARK   30  A    between atoms: _83  and  _86
REMARK   31  A    between atoms: _88  and  _90
REMARK   32  A    between atoms: _90  and  _91
REMARK   33  A    between atoms: _90  and  _93
REMARK   34  A    between atoms: _96  and  _98
REMARK   35  A    between atoms: _98  and  _99
REMARK   36  A    between atoms: _98  and  _101
REMARK   37  A    between atoms: _101  and  _102
REMARK   38  A    between atoms: _105  and  _107
REMARK   39  A    between atoms: _107  and  _108
REMARK   40  A    between atoms: _107  and  _110
REMARK   41  A    between atoms: _113  and  _115
REMARK   42  A    between atoms: _115  and  _116
REMARK   43  A    between atoms: _115  and  _118
REMARK   44  A    between atoms: _118  and  _119
REMARK   45  A    between atoms: _119  and  _120
REMARK   46  A    between atoms: _123  and  _125
REMARK   47  A    between atoms: _125  and  _126
REMARK   48  A    between atoms: _125  and  _128
REMARK   49  A    between atoms: _128  and  _129
REMARK   50  A    between atoms: _139  and  _141
REMARK   51  A    between atoms: _141  and  _142
REMARK   52  A    between atoms: _141  and  _144
REMARK   53  A    between atoms: _144  and  _145
REMARK   54  A    between atoms: _145  and  _146
REMARK   55  A    between atoms: _151  and  _153
REMARK   56  A    between atoms: _153  and  _154
REMARK   57  A    between atoms: _153  and  _156
REMARK   58  A    between atoms: _156  and  _157
REMARK   59  A    between atoms: _157  and  _158
REMARK   60  A    between atoms: _161  and  _163
REMARK   61  A    between atoms: _163  and  _164
REMARK   62  A    between atoms: _163  and  _166
REMARK   63  A    between atoms: _166  and  _167
REMARK   64  A    between atoms: _167  and  _168
REMARK   65  A    between atoms: _168  and  _169
REMARK   66  A    between atoms: _169  and  _170
REMARK   67  A    between atoms: _174  and  _176
REMARK   68  A    between atoms: _176  and  _177
REMARK   69  A    between atoms: _176  and  _179
REMARK   70  A    between atoms: _179  and  _180
REMARK   71  A    between atoms: _180  and  _181
REMARK   72  A    between atoms: _186  and  _188
REMARK   73  A    between atoms: _188  and  _189
REMARK   74  A    between atoms: _188  and  _191
REMARK   75  A    between atoms: _191  and  _192
REMARK   76  A    between atoms: _196  and  _197
REMARK   77  A    between atoms: _202  and  _204
REMARK   78  A    between atoms: _204  and  _205
REMARK   79  A    between atoms: _204  and  _207
REMARK   80  A    between atoms: _207  and  _208
REMARK   81  A    between atoms: _210  and  _212
REMARK   82  A    between atoms: _212  and  _213
REMARK   83  A    between atoms: _212  and  _215
REMARK   84  A    between atoms: _215  and  _216
REMARK   85  A    between atoms: _216  and  _217
REMARK   86  A    between atoms: _220  and  _222
REMARK   87  A    between atoms: _222  and  _223
REMARK   88  A    between atoms: _222  and  _225
REMARK   89  A    between atoms: _225  and  _226
REMARK   90  A    between atoms: _226  and  _227
REMARK   91  A    between atoms: _227  and  _228
REMARK   92  A    between atoms: _237  and  _239
REMARK   93  A    between atoms: _239  and  _240
REMARK   94  A    between atoms: _239  and  _242
REMARK   95  A    between atoms: _244  and  _246
REMARK   96  A    between atoms: _246  and  _247
REMARK   97  A    between atoms: _246  and  _249
REMARK   98  A    between atoms: _249  and  _250
REMARK   99  A    between atoms: _255  and  _256
REMARK  100  A    between atoms: _258  and  _260
REMARK  101  A    between atoms: _260  and  _261
REMARK  102  A    between atoms: _264  and  _266
REMARK  103  A    between atoms: _266  and  _267
REMARK  104  A    between atoms: _266  and  _269
REMARK  105  A    between atoms: _269  and  _270
REMARK  106  A    between atoms: _272  and  _274
REMARK  107  A    between atoms: _274  and  _275
REMARK  108  A    between atoms: _274  and  _277
REMARK  109  A    between atoms: _277  and  _278
REMARK  110  A    between atoms: _281  and  _283
REMARK  111  A    between atoms: _283  and  _284
REMARK  112  A    between atoms: _283  and  _286
REMARK  113  A    between atoms: _286  and  _287
REMARK  114  A    between atoms: _292  and  _293
REMARK  115  A    between atoms: _295  and  _297
REMARK  116  A    between atoms: _297  and  _298
REMARK  117  A    between atoms: _297  and  _300
REMARK  118  A    between atoms: _300  and  _301
REMARK  119  A    between atoms: _304  and  _306
REMARK  120  A    between atoms: _306  and  _307
REMARK  121  A    between atoms: _306  and  _309
REMARK  122  A    between atoms: _309  and  _310
REMARK  123  A    between atoms: _313  and  _315
REMARK  124  A    between atoms: _315  and  _316
REMARK  125  A    between atoms: _315  and  _318
REMARK  126  A    between atoms: _318  and  _319
REMARK  127  A    between atoms: _324  and  _326
REMARK  128  A    between atoms: _326  and  _327
REMARK  129  A    between atoms: _329  and  _331
REMARK  130  A    between atoms: _331  and  _332
REMARK  131  A    between atoms: _331  and  _334
REMARK  132  A    between atoms: _334  and  _335
REMARK  133  A    between atoms: _340  and  _342
REMARK  134  A    between atoms: _342  and  _343
REMARK                            x       y       z     vdW  Elec       q    Type
REMARK                         _______ _______ _______ _____ _____    ______ ____
ROOT
ATOM      1  O   HOH     1      11.247   1.921  21.687  0.00  0.00    +0.000 OA
ENDROOT
TORSDOF 0
REMARK  Name = ../refined-set-2016/3ie3/3ie3_pocket.pdb
REMARK  134 active torsions:
REMARK  status: ('A' for Active; 'I' for Inactive)
REMARK    1  A    between atoms: _1  and  _3
REMARK    2  A    between atoms: _3  and  _4
REMARK    3  A    between atoms: _3  and  _6
REMARK    4  A    between atoms: _6  and  _7
REMARK    5  A    between atoms: _12  and  _13
REMARK    6  A    between atoms: _15  and  _17
REMARK    7  A    between atoms: _17  and  _18
REMARK    8  A    between atoms: _17  and  _20
REMARK    9  A    between atoms: _20  and  _21
REMARK   10  A    between atoms: _28  and  _29
REMARK   11  A    between atoms: _34  and  _36
REMARK   12  A    between atoms: _36  and  _37
REMARK   13  A    between atoms: _36  and  _39
REMARK   14  A    between atoms: _42  and  _44
REMARK   15  A    between atoms: _44  and  _45
REMARK   16  A    between atoms: _44  and  _47
REMARK   17  A    between atoms: _47  and  _48
REMARK   18  A    between atoms: _48  and  _49
REMARK   19  A    between atoms: _49  and  _50
REMARK   20  A    between atoms: _59  and  _61
REMARK   21  A    between atoms: _61  and  _62
REMARK   22  A    between atoms: _64  and  _66
REMARK   23  A    between atoms: _66  and  _67
REMARK   24  A    between atoms: _66  and  _69
REMARK   25  A    between atoms: _69  and  _70
REMARK   26  A    between atoms: _70  and  _71
REMARK   27  A    between atoms: _71  and  _72
REMARK   28  A    between atoms: _81  and  _83
REMARK   29  A    between atoms: _83  and  _84
REMARK   30  A    between atoms: _83  and  _86
REMARK   31  A    between atoms: _88  and  _90
REMARK   32  A    between atoms: _90  and  _91
REMARK   33  A    between atoms: _90  and  _93
REMARK   34  A    between atoms: _96  and  _98
REMARK   35  A    between atoms: _98  and  _99
REMARK   36  A    between atoms: _98  and  _101
REMARK   37  A    between atoms: _101  and  _102
REMARK   38  A    between atoms: _105  and  _107
REMARK   39  A    between atoms: _107  and  _108
REMARK   40  A    between atoms: _107  and  _110
REMARK   41  A    between atoms: _113  and  _115
REMARK   42  A    between atoms: _115  and  _116
REMARK   43  A    between atoms: _115  and  _118
REMARK   44  A    between atoms: _118  and  _119
REMARK   45  A    between atoms: _119  and  _120
REMARK   46  A    between atoms: _123  and  _125
REMARK   47  A    between atoms: _125  and  _126
REMARK   48  A    between atoms: _125  and  _128
REMARK   49  A    between atoms: _128  and  _129
REMARK   50  A    between atoms: _139  and  _141
REMARK   51  A    between atoms: _141  and  _142
REMARK   52  A    between atoms: _141  and  _144
REMARK   53  A    between atoms: _144  and  _145
REMARK   54  A    between atoms: _145  and  _146
REMARK   55  A    between atoms: _151  and  _153
REMARK   56  A    between atoms: _153  and  _154
REMARK   57  A    between atoms: _153  and  _156
REMARK   58  A    between atoms: _156  and  _157
REMARK   59  A    between atoms: _157  and  _158
REMARK   60  A    between atoms: _161  and  _163
REMARK   61  A    between atoms: _163  and  _164
REMARK   62  A    between atoms: _163  and  _166
REMARK   63  A    between atoms: _166  and  _167
REMARK   64  A    between atoms: _167  and  _168
REMARK   65  A    between atoms: _168  and  _169
REMARK   66  A    between atoms: _169  and  _170
REMARK   67  A    between atoms: _174  and  _176
REMARK   68  A    between atoms: _176  and  _177
REMARK   69  A    between atoms: _176  and  _179
REMARK   70  A    between atoms: _179  and  _180
REMARK   71  A    between atoms: _180  and  _181
REMARK   72  A    between atoms: _186  and  _188
REMARK   73  A    between atoms: _188  and  _189
REMARK   74  A    between atoms: _188  and  _191
REMARK   75  A    between atoms: _191  and  _192
REMARK   76  A    between atoms: _196  and  _197
REMARK   77  A    between atoms: _202  and  _204
REMARK   78  A    between atoms: _204  and  _205
REMARK   79  A    between atoms: _204  and  _207
REMARK   80  A    between atoms: _207  and  _208
REMARK   81  A    between atoms: _210  and  _212
REMARK   82  A    between atoms: _212  and  _213
REMARK   83  A    between atoms: _212  and  _215
REMARK   84  A    between atoms: _215  and  _216
REMARK   85  A    between atoms: _216  and  _217
REMARK   86  A    between atoms: _220  and  _222
REMARK   87  A    between atoms: _222  and  _223
REMARK   88  A    between atoms: _222  and  _225
REMARK   89  A    between atoms: _225  and  _226
REMARK   90  A    between atoms: _226  and  _227
REMARK   91  A    between atoms: _227  and  _228
REMARK   92  A    between atoms: _237  and  _239
REMARK   93  A    between atoms: _239  and  _240
REMARK   94  A    between atoms: _239  and  _242
REMARK   95  A    between atoms: _244  and  _246
REMARK   96  A    between atoms: _246  and  _247
REMARK   97  A    between atoms: _246  and  _249
REMARK   98  A    between atoms: _249  and  _250
REMARK   99  A    between atoms: _255  and  _256
REMARK  100  A    between atoms: _258  and  _260
REMARK  101  A    between atoms: _260  and  _261
REMARK  102  A    between atoms: _264  and  _266
REMARK  103  A    between atoms: _266  and  _267
REMARK  104  A    between atoms: _266  and  _269
REMARK  105  A    between atoms: _269  and  _270
REMARK  106  A    between atoms: _272  and  _274
REMARK  107  A    between atoms: _274  and  _275
REMARK  108  A    between atoms: _274  and  _277
REMARK  109  A    between atoms: _277  and  _278
REMARK  110  A    between atoms: _281  and  _283
REMARK  111  A    between atoms: _283  and  _284
REMARK  112  A    between atoms: _283  and  _286
REMARK  113  A    between atoms: _286  and  _287
REMARK  114  A    between atoms: _292  and  _293
REMARK  115  A    between atoms: _295  and  _297
REMARK  116  A    between atoms: _297  and  _298
REMARK  117  A    between atoms: _297  and  _300
REMARK  118  A    between atoms: _300  and  _301
REMARK  119  A    between atoms: _304  and  _306
REMARK  120  A    between atoms: _306  and  _307
REMARK  121  A    between atoms: _306  and  _309
REMARK  122  A    between atoms: _309  and  _310
REMARK  123  A    between atoms: _313  and  _315
REMARK  124  A    between atoms: _315  and  _316
REMARK  125  A    between atoms: _315  and  _318
REMARK  126  A    between atoms: _318  and  _319
REMARK  127  A    between atoms: _324  and  _326
REMARK  128  A    between atoms: _326  and  _327
REMARK  129  A    between atoms: _329  and  _331
REMARK  130  A    between atoms: _331  and  _332
REMARK  131  A    between atoms: _331  and  _334
REMARK  132  A    between atoms: _334  and  _335
REMARK  133  A    between atoms: _340  and  _342
REMARK  134  A    between atoms: _342  and  _343
REMARK                            x       y       z     vdW  Elec       q    Type
REMARK                         _______ _______ _______ _____ _____    ______ ____
ROOT
ATOM      1  O   HOH     1      12.665   0.733  19.811  0.00  0.00    +0.000 OA
ENDROOT
TORSDOF 0
REMARK  Name = ../refined-set-2016/3ie3/3ie3_pocket.pdb
REMARK  134 active torsions:
REMARK  status: ('A' for Active; 'I' for Inactive)
REMARK    1  A    between atoms: _1  and  _3
REMARK    2  A    between atoms: _3  and  _4
REMARK    3  A    between atoms: _3  and  _6
REMARK    4  A    between atoms: _6  and  _7
REMARK    5  A    between atoms: _12  and  _13
REMARK    6  A    between atoms: _15  and  _17
REMARK    7  A    between atoms: _17  and  _18
REMARK    8  A    between atoms: _17  and  _20
REMARK    9  A    between atoms: _20  and  _21
REMARK   10  A    between atoms: _28  and  _29
REMARK   11  A    between atoms: _34  and  _36
REMARK   12  A    between atoms: _36  and  _37
REMARK   13  A    between atoms: _36  and  _39
REMARK   14  A    between atoms: _42  and  _44
REMARK   15  A    between atoms: _44  and  _45
REMARK   16  A    between atoms: _44  and  _47
REMARK   17  A    between atoms: _47  and  _48
REMARK   18  A    between atoms: _48  and  _49
REMARK   19  A    between atoms: _49  and  _50
REMARK   20  A    between atoms: _59  and  _61
REMARK   21  A    between atoms: _61  and  _62
REMARK   22  A    between atoms: _64  and  _66
REMARK   23  A    between atoms: _66  and  _67
REMARK   24  A    between atoms: _66  and  _69
REMARK   25  A    between atoms: _69  and  _70
REMARK   26  A    between atoms: _70  and  _71
REMARK   27  A    between atoms: _71  and  _72
REMARK   28  A    between atoms: _81  and  _83
REMARK   29  A    between atoms: _83  and  _84
REMARK   30  A    between atoms: _83  and  _86
REMARK   31  A    between atoms: _88  and  _90
REMARK   32  A    between atoms: _90  and  _91
REMARK   33  A    between atoms: _90  and  _93
REMARK   34  A    between atoms: _96  and  _98
REMARK   35  A    between atoms: _98  and  _99
REMARK   36  A    between atoms: _98  and  _101
REMARK   37  A    between atoms: _101  and  _102
REMARK   38  A    between atoms: _105  and  _107
REMARK   39  A    between atoms: _107  and  _108
REMARK   40  A    between atoms: _107  and  _110
REMARK   41  A    between atoms: _113  and  _115
REMARK   42  A    between atoms: _115  and  _116
REMARK   43  A    between atoms: _115  and  _118
REMARK   44  A    between atoms: _118  and  _119
REMARK   45  A    between atoms: _119  and  _120
REMARK   46  A    between atoms: _123  and  _125
REMARK   47  A    between atoms: _125  and  _126
REMARK   48  A    between atoms: _125  and  _128
REMARK   49  A    between atoms: _128  and  _129
REMARK   50  A    between atoms: _139  and  _141
REMARK   51  A    between atoms: _141  and  _142
REMARK   52  A    between atoms: _141  and  _144
REMARK   53  A    between atoms: _144  and  _145
REMARK   54  A    between atoms: _145  and  _146
REMARK   55  A    between atoms: _151  and  _153
REMARK   56  A    between atoms: _153  and  _154
REMARK   57  A    between atoms: _153  and  _156
REMARK   58  A    between atoms: _156  and  _157
REMARK   59  A    between atoms: _157  and  _158
REMARK   60  A    between atoms: _161  and  _163
REMARK   61  A    between atoms: _163  and  _164
REMARK   62  A    between atoms: _163  and  _166
REMARK   63  A    between atoms: _166  and  _167
REMARK   64  A    between atoms: _167  and  _168
REMARK   65  A    between atoms: _168  and  _169
REMARK   66  A    between atoms: _169  and  _170
REMARK   67  A    between atoms: _174  and  _176
REMARK   68  A    between atoms: _176  and  _177
REMARK   69  A    between atoms: _176  and  _179
REMARK   70  A    between atoms: _179  and  _180
REMARK   71  A    between atoms: _180  and  _181
REMARK   72  A    between atoms: _186  and  _188
REMARK   73  A    between atoms: _188  and  _189
REMARK   74  A    between atoms: _188  and  _191
REMARK   75  A    between atoms: _191  and  _192
REMARK   76  A    between atoms: _196  and  _197
REMARK   77  A    between atoms: _202  and  _204
REMARK   78  A    between atoms: _204  and  _205
REMARK   79  A    between atoms: _204  and  _207
REMARK   80  A    between atoms: _207  and  _208
REMARK   81  A    between atoms: _210  and  _212
REMARK   82  A    between atoms: _212  and  _213
REMARK   83  A    between atoms: _212  and  _215
REMARK   84  A    between atoms: _215  and  _216
REMARK   85  A    between atoms: _216  and  _217
REMARK   86  A    between atoms: _220  and  _222
REMARK   87  A    between atoms: _222  and  _223
REMARK   88  A    between atoms: _222  and  _225
REMARK   89  A    between atoms: _225  and  _226
REMARK   90  A    between atoms: _226  and  _227
REMARK   91  A    between atoms: _227  and  _228
REMARK   92  A    between atoms: _237  and  _239
REMARK   93  A    between atoms: _239  and  _240
REMARK   94  A    between atoms: _239  and  _242
REMARK   95  A    between atoms: _244  and  _246
REMARK   96  A    between atoms: _246  and  _247
REMARK   97  A    between atoms: _246  and  _249
REMARK   98  A    between atoms: _249  and  _250
REMARK   99  A    between atoms: _255  and  _256
REMARK  100  A    between atoms: _258  and  _260
REMARK  101  A    between atoms: _260  and  _261
REMARK  102  A    between atoms: _264  and  _266
REMARK  103  A    between atoms: _266  and  _267
REMARK  104  A    between atoms: _266  and  _269
REMARK  105  A    between atoms: _269  and  _270
REMARK  106  A    between atoms: _272  and  _274
REMARK  107  A    between atoms: _274  and  _275
REMARK  108  A    between atoms: _274  and  _277
REMARK  109  A    between atoms: _277  and  _278
REMARK  110  A    between atoms: _281  and  _283
REMARK  111  A    between atoms: _283  and  _284
REMARK  112  A    between atoms: _283  and  _286
REMARK  113  A    between atoms: _286  and  _287
REMARK  114  A    between atoms: _292  and  _293
REMARK  115  A    between atoms: _295  and  _297
REMARK  116  A    between atoms: _297  and  _298
REMARK  117  A    between atoms: _297  and  _300
REMARK  118  A    between atoms: _300  and  _301
REMARK  119  A    between atoms: _304  and  _306
REMARK  120  A    between atoms: _306  and  _307
REMARK  121  A    between atoms: _306  and  _309
REMARK  122  A    between atoms: _309  and  _310
REMARK  123  A    between atoms: _313  and  _315
REMARK  124  A    between atoms: _315  and  _316
REMARK  125  A    between atoms: _315  and  _318
REMARK  126  A    between atoms: _318  and  _319
REMARK  127  A    between atoms: _324  and  _326
REMARK  128  A    between atoms: _326  and  _327
REMARK  129  A    between atoms: _329  and  _331
REMARK  130  A    between atoms: _331  and  _332
REMARK  131  A    between atoms: _331  and  _334
REMARK  132  A    between atoms: _334  and  _335
REMARK  133  A    between atoms: _340  and  _342
REMARK  134  A    between atoms: _342  and  _343
REMARK                            x       y       z     vdW  Elec       q    Type
REMARK                         _______ _______ _______ _____ _____    ______ ____
ROOT
ATOM      1  O   HOH     1      13.292   9.513  20.498  0.00  0.00    +0.000 OA
ENDROOT
TORSDOF 0
REMARK  Name = ../refined-set-2016/3ie3/3ie3_pocket.pdb
REMARK  134 active torsions:
REMARK  status: ('A' for Active; 'I' for Inactive)
REMARK    1  A    between atoms: _1  and  _3
REMARK    2  A    between atoms: _3  and  _4
REMARK    3  A    between atoms: _3  and  _6
REMARK    4  A    between atoms: _6  and  _7
REMARK    5  A    between atoms: _12  and  _13
REMARK    6  A    between atoms: _15  and  _17
REMARK    7  A    between atoms: _17  and  _18
REMARK    8  A    between atoms: _17  and  _20
REMARK    9  A    between atoms: _20  and  _21
REMARK   10  A    between atoms: _28  and  _29
REMARK   11  A    between atoms: _34  and  _36
REMARK   12  A    between atoms: _36  and  _37
REMARK   13  A    between atoms: _36  and  _39
REMARK   14  A    between atoms: _42  and  _44
REMARK   15  A    between atoms: _44  and  _45
REMARK   16  A    between atoms: _44  and  _47
REMARK   17  A    between atoms: _47  and  _48
REMARK   18  A    between atoms: _48  and  _49
REMARK   19  A    between atoms: _49  and  _50
REMARK   20  A    between atoms: _59  and  _61
REMARK   21  A    between atoms: _61  and  _62
REMARK   22  A    between atoms: _64  and  _66
REMARK   23  A    between atoms: _66  and  _67
REMARK   24  A    between atoms: _66  and  _69
REMARK   25  A    between atoms: _69  and  _70
REMARK   26  A    between atoms: _70  and  _71
REMARK   27  A    between atoms: _71  and  _72
REMARK   28  A    between atoms: _81  and  _83
REMARK   29  A    between atoms: _83  and  _84
REMARK   30  A    between atoms: _83  and  _86
REMARK   31  A    between atoms: _88  and  _90
REMARK   32  A    between atoms: _90  and  _91
REMARK   33  A    between atoms: _90  and  _93
REMARK   34  A    between atoms: _96  and  _98
REMARK   35  A    between atoms: _98  and  _99
REMARK   36  A    between atoms: _98  and  _101
REMARK   37  A    between atoms: _101  and  _102
REMARK   38  A    between atoms: _105  and  _107
REMARK   39  A    between atoms: _107  and  _108
REMARK   40  A    between atoms: _107  and  _110
REMARK   41  A    between atoms: _113  and  _115
REMARK   42  A    between atoms: _115  and  _116
REMARK   43  A    between atoms: _115  and  _118
REMARK   44  A    between atoms: _118  and  _119
REMARK   45  A    between atoms: _119  and  _120
REMARK   46  A    between atoms: _123  and  _125
REMARK   47  A    between atoms: _125  and  _126
REMARK   48  A    between atoms: _125  and  _128
REMARK   49  A    between atoms: _128  and  _129
REMARK   50  A    between atoms: _139  and  _141
REMARK   51  A    between atoms: _141  and  _142
REMARK   52  A    between atoms: _141  and  _144
REMARK   53  A    between atoms: _144  and  _145
REMARK   54  A    between atoms: _145  and  _146
REMARK   55  A    between atoms: _151  and  _153
REMARK   56  A    between atoms: _153  and  _154
REMARK   57  A    between atoms: _153  and  _156
REMARK   58  A    between atoms: _156  and  _157
REMARK   59  A    between atoms: _157  and  _158
REMARK   60  A    between atoms: _161  and  _163
REMARK   61  A    between atoms: _163  and  _164
REMARK   62  A    between atoms: _163  and  _166
REMARK   63  A    between atoms: _166  and  _167
REMARK   64  A    between atoms: _167  and  _168
REMARK   65  A    between atoms: _168  and  _169
REMARK   66  A    between atoms: _169  and  _170
REMARK   67  A    between atoms: _174  and  _176
REMARK   68  A    between atoms: _176  and  _177
REMARK   69  A    between atoms: _176  and  _179
REMARK   70  A    between atoms: _179  and  _180
REMARK   71  A    between atoms: _180  and  _181
REMARK   72  A    between atoms: _186  and  _188
REMARK   73  A    between atoms: _188  and  _189
REMARK   74  A    between atoms: _188  and  _191
REMARK   75  A    between atoms: _191  and  _192
REMARK   76  A    between atoms: _196  and  _197
REMARK   77  A    between atoms: _202  and  _204
REMARK   78  A    between atoms: _204  and  _205
REMARK   79  A    between atoms: _204  and  _207
REMARK   80  A    between atoms: _207  and  _208
REMARK   81  A    between atoms: _210  and  _212
REMARK   82  A    between atoms: _212  and  _213
REMARK   83  A    between atoms: _212  and  _215
REMARK   84  A    between atoms: _215  and  _216
REMARK   85  A    between atoms: _216  and  _217
REMARK   86  A    between atoms: _220  and  _222
REMARK   87  A    between atoms: _222  and  _223
REMARK   88  A    between atoms: _222  and  _225
REMARK   89  A    between atoms: _225  and  _226
REMARK   90  A    between atoms: _226  and  _227
REMARK   91  A    between atoms: _227  and  _228
REMARK   92  A    between atoms: _237  and  _239
REMARK   93  A    between atoms: _239  and  _240
REMARK   94  A    between atoms: _239  and  _242
REMARK   95  A    between atoms: _244  and  _246
REMARK   96  A    between atoms: _246  and  _247
REMARK   97  A    between atoms: _246  and  _249
REMARK   98  A    between atoms: _249  and  _250
REMARK   99  A    between atoms: _255  and  _256
REMARK  100  A    between atoms: _258  and  _260
REMARK  101  A    between atoms: _260  and  _261
REMARK  102  A    between atoms: _264  and  _266
REMARK  103  A    between atoms: _266  and  _267
REMARK  104  A    between atoms: _266  and  _269
REMARK  105  A    between atoms: _269  and  _270
REMARK  106  A    between atoms: _272  and  _274
REMARK  107  A    between atoms: _274  and  _275
REMARK  108  A    between atoms: _274  and  _277
REMARK  109  A    between atoms: _277  and  _278
REMARK  110  A    between atoms: _281  and  _283
REMARK  111  A    between atoms: _283  and  _284
REMARK  112  A    between atoms: _283  and  _286
REMARK  113  A    between atoms: _286  and  _287
REMARK  114  A    between atoms: _292  and  _293
REMARK  115  A    between atoms: _295  and  _297
REMARK  116  A    between atoms: _297  and  _298
REMARK  117  A    between atoms: _297  and  _300
REMARK  118  A    between atoms: _300  and  _301
REMARK  119  A    between atoms: _304  and  _306
REMARK  120  A    between atoms: _306  and  _307
REMARK  121  A    between atoms: _306  and  _309
REMARK  122  A    between atoms: _309  and  _310
REMARK  123  A    between atoms: _313  and  _315
REMARK  124  A    between atoms: _315  and  _316
REMARK  125  A    between atoms: _315  and  _318
REMARK  126  A    between atoms: _318  and  _319
REMARK  127  A    between atoms: _324  and  _326
REMARK  128  A    between atoms: _326  and  _327
REMARK  129  A    between atoms: _329  and  _331
REMARK  130  A    between atoms: _331  and  _332
REMARK  131  A    between atoms: _331  and  _334
REMARK  132  A    between atoms: _334  and  _335
REMARK  133  A    between atoms: _340  and  _342
REMARK  134  A    between atoms: _342  and  _343
REMARK                            x       y       z     vdW  Elec       q    Type
REMARK                         _______ _______ _______ _____ _____    ______ ____
ROOT
ATOM      1  O   HOH     1       5.331  -5.517  27.187  0.00  0.00    +0.000 OA
ENDROOT
TORSDOF 0
REMARK  Name = ../refined-set-2016/3ie3/3ie3_pocket.pdb
REMARK  134 active torsions:
REMARK  status: ('A' for Active; 'I' for Inactive)
REMARK    1  A    between atoms: _1  and  _3
REMARK    2  A    between atoms: _3  and  _4
REMARK    3  A    between atoms: _3  and  _6
REMARK    4  A    between atoms: _6  and  _7
REMARK    5  A    between atoms: _12  and  _13
REMARK    6  A    between atoms: _15  and  _17
REMARK    7  A    between atoms: _17  and  _18
REMARK    8  A    between atoms: _17  and  _20
REMARK    9  A    between atoms: _20  and  _21
REMARK   10  A    between atoms: _28  and  _29
REMARK   11  A    between atoms: _34  and  _36
REMARK   12  A    between atoms: _36  and  _37
REMARK   13  A    between atoms: _36  and  _39
REMARK   14  A    between atoms: _42  and  _44
REMARK   15  A    between atoms: _44  and  _45
REMARK   16  A    between atoms: _44  and  _47
REMARK   17  A    between atoms: _47  and  _48
REMARK   18  A    between atoms: _48  and  _49
REMARK   19  A    between atoms: _49  and  _50
REMARK   20  A    between atoms: _59  and  _61
REMARK   21  A    between atoms: _61  and  _62
REMARK   22  A    between atoms: _64  and  _66
REMARK   23  A    between atoms: _66  and  _67
REMARK   24  A    between atoms: _66  and  _69
REMARK   25  A    between atoms: _69  and  _70
REMARK   26  A    between atoms: _70  and  _71
REMARK   27  A    between atoms: _71  and  _72
REMARK   28  A    between atoms: _81  and  _83
REMARK   29  A    between atoms: _83  and  _84
REMARK   30  A    between atoms: _83  and  _86
REMARK   31  A    between atoms: _88  and  _90
REMARK   32  A    between atoms: _90  and  _91
REMARK   33  A    between atoms: _90  and  _93
REMARK   34  A    between atoms: _96  and  _98
REMARK   35  A    between atoms: _98  and  _99
REMARK   36  A    between atoms: _98  and  _101
REMARK   37  A    between atoms: _101  and  _102
REMARK   38  A    between atoms: _105  and  _107
REMARK   39  A    between atoms: _107  and  _108
REMARK   40  A    between atoms: _107  and  _110
REMARK   41  A    between atoms: _113  and  _115
REMARK   42  A    between atoms: _115  and  _116
REMARK   43  A    between atoms: _115  and  _118
REMARK   44  A    between atoms: _118  and  _119
REMARK   45  A    between atoms: _119  and  _120
REMARK   46  A    between atoms: _123  and  _125
REMARK   47  A    between atoms: _125  and  _126
REMARK   48  A    between atoms: _125  and  _128
REMARK   49  A    between atoms: _128  and  _129
REMARK   50  A    between atoms: _139  and  _141
REMARK   51  A    between atoms: _141  and  _142
REMARK   52  A    between atoms: _141  and  _144
REMARK   53  A    between atoms: _144  and  _145
REMARK   54  A    between atoms: _145  and  _146
REMARK   55  A    between atoms: _151  and  _153
REMARK   56  A    between atoms: _153  and  _154
REMARK   57  A    between atoms: _153  and  _156
REMARK   58  A    between atoms: _156  and  _157
REMARK   59  A    between atoms: _157  and  _158
REMARK   60  A    between atoms: _161  and  _163
REMARK   61  A    between atoms: _163  and  _164
REMARK   62  A    between atoms: _163  and  _166
REMARK   63  A    between atoms: _166  and  _167
REMARK   64  A    between atoms: _167  and  _168
REMARK   65  A    between atoms: _168  and  _169
REMARK   66  A    between atoms: _169  and  _170
REMARK   67  A    between atoms: _174  and  _176
REMARK   68  A    between atoms: _176  and  _177
REMARK   69  A    between atoms: _176  and  _179
REMARK   70  A    between atoms: _179  and  _180
REMARK   71  A    between atoms: _180  and  _181
REMARK   72  A    between atoms: _186  and  _188
REMARK   73  A    between atoms: _188  and  _189
REMARK   74  A    between atoms: _188  and  _191
REMARK   75  A    between atoms: _191  and  _192
REMARK   76  A    between atoms: _196  and  _197
REMARK   77  A    between atoms: _202  and  _204
REMARK   78  A    between atoms: _204  and  _205
REMARK   79  A    between atoms: _204  and  _207
REMARK   80  A    between atoms: _207  and  _208
REMARK   81  A    between atoms: _210  and  _212
REMARK   82  A    between atoms: _212  and  _213
REMARK   83  A    between atoms: _212  and  _215
REMARK   84  A    between atoms: _215  and  _216
REMARK   85  A    between atoms: _216  and  _217
REMARK   86  A    between atoms: _220  and  _222
REMARK   87  A    between atoms: _222  and  _223
REMARK   88  A    between atoms: _222  and  _225
REMARK   89  A    between atoms: _225  and  _226
REMARK   90  A    between atoms: _226  and  _227
REMARK   91  A    between atoms: _227  and  _228
REMARK   92  A    between atoms: _237  and  _239
REMARK   93  A    between atoms: _239  and  _240
REMARK   94  A    between atoms: _239  and  _242
REMARK   95  A    between atoms: _244  and  _246
REMARK   96  A    between atoms: _246  and  _247
REMARK   97  A    between atoms: _246  and  _249
REMARK   98  A    between atoms: _249  and  _250
REMARK   99  A    between atoms: _255  and  _256
REMARK  100  A    between atoms: _258  and  _260
REMARK  101  A    between atoms: _260  and  _261
REMARK  102  A    between atoms: _264  and  _266
REMARK  103  A    between atoms: _266  and  _267
REMARK  104  A    between atoms: _266  and  _269
REMARK  105  A    between atoms: _269  and  _270
REMARK  106  A    between atoms: _272  and  _274
REMARK  107  A    between atoms: _274  and  _275
REMARK  108  A    between atoms: _274  and  _277
REMARK  109  A    between atoms: _277  and  _278
REMARK  110  A    between atoms: _281  and  _283
REMARK  111  A    between atoms: _283  and  _284
REMARK  112  A    between atoms: _283  and  _286
REMARK  113  A    between atoms: _286  and  _287
REMARK  114  A    between atoms: _292  and  _293
REMARK  115  A    between atoms: _295  and  _297
REMARK  116  A    between atoms: _297  and  _298
REMARK  117  A    between atoms: _297  and  _300
REMARK  118  A    between atoms: _300  and  _301
REMARK  119  A    between atoms: _304  and  _306
REMARK  120  A    between atoms: _306  and  _307
REMARK  121  A    between atoms: _306  and  _309
REMARK  122  A    between atoms: _309  and  _310
REMARK  123  A    between atoms: _313  and  _315
REMARK  124  A    between atoms: _315  and  _316
REMARK  125  A    between atoms: _315  and  _318
REMARK  126  A    between atoms: _318  and  _319
REMARK  127  A    between atoms: _324  and  _326
REMARK  128  A    between atoms: _326  and  _327
REMARK  129  A    between atoms: _329  and  _331
REMARK  130  A    between atoms: _331  and  _332
REMARK  131  A    between atoms: _331  and  _334
REMARK  132  A    between atoms: _334  and  _335
REMARK  133  A    between atoms: _340  and  _342
REMARK  134  A    between atoms: _342  and  _343
REMARK                            x       y       z     vdW  Elec       q    Type
REMARK                         _______ _______ _______ _____ _____    ______ ____
ROOT
ATOM      1  O   HOH     1      10.444   6.803  19.941  0.00  0.00    +0.000 OA
ENDROOT
TORSDOF 0
REMARK  Name = ../refined-set-2016/3ie3/3ie3_pocket.pdb
REMARK  134 active torsions:
REMARK  status: ('A' for Active; 'I' for Inactive)
REMARK    1  A    between atoms: _1  and  _3
REMARK    2  A    between atoms: _3  and  _4
REMARK    3  A    between atoms: _3  and  _6
REMARK    4  A    between atoms: _6  and  _7
REMARK    5  A    between atoms: _12  and  _13
REMARK    6  A    between atoms: _15  and  _17
REMARK    7  A    between atoms: _17  and  _18
REMARK    8  A    between atoms: _17  and  _20
REMARK    9  A    between atoms: _20  and  _21
REMARK   10  A    between atoms: _28  and  _29
REMARK   11  A    between atoms: _34  and  _36
REMARK   12  A    between atoms: _36  and  _37
REMARK   13  A    between atoms: _36  and  _39
REMARK   14  A    between atoms: _42  and  _44
REMARK   15  A    between atoms: _44  and  _45
REMARK   16  A    between atoms: _44  and  _47
REMARK   17  A    between atoms: _47  and  _48
REMARK   18  A    between atoms: _48  and  _49
REMARK   19  A    between atoms: _49  and  _50
REMARK   20  A    between atoms: _59  and  _61
REMARK   21  A    between atoms: _61  and  _62
REMARK   22  A    between atoms: _64  and  _66
REMARK   23  A    between atoms: _66  and  _67
REMARK   24  A    between atoms: _66  and  _69
REMARK   25  A    between atoms: _69  and  _70
REMARK   26  A    between atoms: _70  and  _71
REMARK   27  A    between atoms: _71  and  _72
REMARK   28  A    between atoms: _81  and  _83
REMARK   29  A    between atoms: _83  and  _84
REMARK   30  A    between atoms: _83  and  _86
REMARK   31  A    between atoms: _88  and  _90
REMARK   32  A    between atoms: _90  and  _91
REMARK   33  A    between atoms: _90  and  _93
REMARK   34  A    between atoms: _96  and  _98
REMARK   35  A    between atoms: _98  and  _99
REMARK   36  A    between atoms: _98  and  _101
REMARK   37  A    between atoms: _101  and  _102
REMARK   38  A    between atoms: _105  and  _107
REMARK   39  A    between atoms: _107  and  _108
REMARK   40  A    between atoms: _107  and  _110
REMARK   41  A    between atoms: _113  and  _115
REMARK   42  A    between atoms: _115  and  _116
REMARK   43  A    between atoms: _115  and  _118
REMARK   44  A    between atoms: _118  and  _119
REMARK   45  A    between atoms: _119  and  _120
REMARK   46  A    between atoms: _123  and  _125
REMARK   47  A    between atoms: _125  and  _126
REMARK   48  A    between atoms: _125  and  _128
REMARK   49  A    between atoms: _128  and  _129
REMARK   50  A    between atoms: _139  and  _141
REMARK   51  A    between atoms: _141  and  _142
REMARK   52  A    between atoms: _141  and  _144
REMARK   53  A    between atoms: _144  and  _145
REMARK   54  A    between atoms: _145  and  _146
REMARK   55  A    between atoms: _151  and  _153
REMARK   56  A    between atoms: _153  and  _154
REMARK   57  A    between atoms: _153  and  _156
REMARK   58  A    between atoms: _156  and  _157
REMARK   59  A    between atoms: _157  and  _158
REMARK   60  A    between atoms: _161  and  _163
REMARK   61  A    between atoms: _163  and  _164
REMARK   62  A    between atoms: _163  and  _166
REMARK   63  A    between atoms: _166  and  _167
REMARK   64  A    between atoms: _167  and  _168
REMARK   65  A    between atoms: _168  and  _169
REMARK   66  A    between atoms: _169  and  _170
REMARK   67  A    between atoms: _174  and  _176
REMARK   68  A    between atoms: _176  and  _177
REMARK   69  A    between atoms: _176  and  _179
REMARK   70  A    between atoms: _179  and  _180
REMARK   71  A    between atoms: _180  and  _181
REMARK   72  A    between atoms: _186  and  _188
REMARK   73  A    between atoms: _188  and  _189
REMARK   74  A    between atoms: _188  and  _191
REMARK   75  A    between atoms: _191  and  _192
REMARK   76  A    between atoms: _196  and  _197
REMARK   77  A    between atoms: _202  and  _204
REMARK   78  A    between atoms: _204  and  _205
REMARK   79  A    between atoms: _204  and  _207
REMARK   80  A    between atoms: _207  and  _208
REMARK   81  A    between atoms: _210  and  _212
REMARK   82  A    between atoms: _212  and  _213
REMARK   83  A    between atoms: _212  and  _215
REMARK   84  A    between atoms: _215  and  _216
REMARK   85  A    between atoms: _216  and  _217
REMARK   86  A    between atoms: _220  and  _222
REMARK   87  A    between atoms: _222  and  _223
REMARK   88  A    between atoms: _222  and  _225
REMARK   89  A    between atoms: _225  and  _226
REMARK   90  A    between atoms: _226  and  _227
REMARK   91  A    between atoms: _227  and  _228
REMARK   92  A    between atoms: _237  and  _239
REMARK   93  A    between atoms: _239  and  _240
REMARK   94  A    between atoms: _239  and  _242
REMARK   95  A    between atoms: _244  and  _246
REMARK   96  A    between atoms: _246  and  _247
REMARK   97  A    between atoms: _246  and  _249
REMARK   98  A    between atoms: _249  and  _250
REMARK   99  A    between atoms: _255  and  _256
REMARK  100  A    between atoms: _258  and  _260
REMARK  101  A    between atoms: _260  and  _261
REMARK  102  A    between atoms: _264  and  _266
REMARK  103  A    between atoms: _266  and  _267
REMARK  104  A    between atoms: _266  and  _269
REMARK  105  A    between atoms: _269  and  _270
REMARK  106  A    between atoms: _272  and  _274
REMARK  107  A    between atoms: _274  and  _275
REMARK  108  A    between atoms: _274  and  _277
REMARK  109  A    between atoms: _277  and  _278
REMARK  110  A    between atoms: _281  and  _283
REMARK  111  A    between atoms: _283  and  _284
REMARK  112  A    between atoms: _283  and  _286
REMARK  113  A    between atoms: _286  and  _287
REMARK  114  A    between atoms: _292  and  _293
REMARK  115  A    between atoms: _295  and  _297
REMARK  116  A    between atoms: _297  and  _298
REMARK  117  A    between atoms: _297  and  _300
REMARK  118  A    between atoms: _300  and  _301
REMARK  119  A    between atoms: _304  and  _306
REMARK  120  A    between atoms: _306  and  _307
REMARK  121  A    between atoms: _306  and  _309
REMARK  122  A    between atoms: _309  and  _310
REMARK  123  A    between atoms: _313  and  _315
REMARK  124  A    between atoms: _315  and  _316
REMARK  125  A    between atoms: _315  and  _318
REMARK  126  A    between atoms: _318  and  _319
REMARK  127  A    between atoms: _324  and  _326
REMARK  128  A    between atoms: _326  and  _327
REMARK  129  A    between atoms: _329  and  _331
REMARK  130  A    between atoms: _331  and  _332
REMARK  131  A    between atoms: _331  and  _334
REMARK  132  A    between atoms: _334  and  _335
REMARK  133  A    between atoms: _340  and  _342
REMARK  134  A    between atoms: _342  and  _343
REMARK                            x       y       z     vdW  Elec       q    Type
REMARK                         _______ _______ _______ _____ _____    ______ ____
ROOT
ATOM      1  O   HOH     1      16.512   9.640  20.579  0.00  0.00    +0.000 OA
ENDROOT
TORSDOF 0
REMARK  Name = ../refined-set-2016/3ie3/3ie3_pocket.pdb
REMARK  134 active torsions:
REMARK  status: ('A' for Active; 'I' for Inactive)
REMARK    1  A    between atoms: _1  and  _3
REMARK    2  A    between atoms: _3  and  _4
REMARK    3  A    between atoms: _3  and  _6
REMARK    4  A    between atoms: _6  and  _7
REMARK    5  A    between atoms: _12  and  _13
REMARK    6  A    between atoms: _15  and  _17
REMARK    7  A    between atoms: _17  and  _18
REMARK    8  A    between atoms: _17  and  _20
REMARK    9  A    between atoms: _20  and  _21
REMARK   10  A    between atoms: _28  and  _29
REMARK   11  A    between atoms: _34  and  _36
REMARK   12  A    between atoms: _36  and  _37
REMARK   13  A    between atoms: _36  and  _39
REMARK   14  A    between atoms: _42  and  _44
REMARK   15  A    between atoms: _44  and  _45
REMARK   16  A    between atoms: _44  and  _47
REMARK   17  A    between atoms: _47  and  _48
REMARK   18  A    between atoms: _48  and  _49
REMARK   19  A    between atoms: _49  and  _50
REMARK   20  A    between atoms: _59  and  _61
REMARK   21  A    between atoms: _61  and  _62
REMARK   22  A    between atoms: _64  and  _66
REMARK   23  A    between atoms: _66  and  _67
REMARK   24  A    between atoms: _66  and  _69
REMARK   25  A    between atoms: _69  and  _70
REMARK   26  A    between atoms: _70  and  _71
REMARK   27  A    between atoms: _71  and  _72
REMARK   28  A    between atoms: _81  and  _83
REMARK   29  A    between atoms: _83  and  _84
REMARK   30  A    between atoms: _83  and  _86
REMARK   31  A    between atoms: _88  and  _90
REMARK   32  A    between atoms: _90  and  _91
REMARK   33  A    between atoms: _90  and  _93
REMARK   34  A    between atoms: _96  and  _98
REMARK   35  A    between atoms: _98  and  _99
REMARK   36  A    between atoms: _98  and  _101
REMARK   37  A    between atoms: _101  and  _102
REMARK   38  A    between atoms: _105  and  _107
REMARK   39  A    between atoms: _107  and  _108
REMARK   40  A    between atoms: _107  and  _110
REMARK   41  A    between atoms: _113  and  _115
REMARK   42  A    between atoms: _115  and  _116
REMARK   43  A    between atoms: _115  and  _118
REMARK   44  A    between atoms: _118  and  _119
REMARK   45  A    between atoms: _119  and  _120
REMARK   46  A    between atoms: _123  and  _125
REMARK   47  A    between atoms: _125  and  _126
REMARK   48  A    between atoms: _125  and  _128
REMARK   49  A    between atoms: _128  and  _129
REMARK   50  A    between atoms: _139  and  _141
REMARK   51  A    between atoms: _141  and  _142
REMARK   52  A    between atoms: _141  and  _144
REMARK   53  A    between atoms: _144  and  _145
REMARK   54  A    between atoms: _145  and  _146
REMARK   55  A    between atoms: _151  and  _153
REMARK   56  A    between atoms: _153  and  _154
REMARK   57  A    between atoms: _153  and  _156
REMARK   58  A    between atoms: _156  and  _157
REMARK   59  A    between atoms: _157  and  _158
REMARK   60  A    between atoms: _161  and  _163
REMARK   61  A    between atoms: _163  and  _164
REMARK   62  A    between atoms: _163  and  _166
REMARK   63  A    between atoms: _166  and  _167
REMARK   64  A    between atoms: _167  and  _168
REMARK   65  A    between atoms: _168  and  _169
REMARK   66  A    between atoms: _169  and  _170
REMARK   67  A    between atoms: _174  and  _176
REMARK   68  A    between atoms: _176  and  _177
REMARK   69  A    between atoms: _176  and  _179
REMARK   70  A    between atoms: _179  and  _180
REMARK   71  A    between atoms: _180  and  _181
REMARK   72  A    between atoms: _186  and  _188
REMARK   73  A    between atoms: _188  and  _189
REMARK   74  A    between atoms: _188  and  _191
REMARK   75  A    between atoms: _191  and  _192
REMARK   76  A    between atoms: _196  and  _197
REMARK   77  A    between atoms: _202  and  _204
REMARK   78  A    between atoms: _204  and  _205
REMARK   79  A    between atoms: _204  and  _207
REMARK   80  A    between atoms: _207  and  _208
REMARK   81  A    between atoms: _210  and  _212
REMARK   82  A    between atoms: _212  and  _213
REMARK   83  A    between atoms: _212  and  _215
REMARK   84  A    between atoms: _215  and  _216
REMARK   85  A    between atoms: _216  and  _217
REMARK   86  A    between atoms: _220  and  _222
REMARK   87  A    between atoms: _222  and  _223
REMARK   88  A    between atoms: _222  and  _225
REMARK   89  A    between atoms: _225  and  _226
REMARK   90  A    between atoms: _226  and  _227
REMARK   91  A    between atoms: _227  and  _228
REMARK   92  A    between atoms: _237  and  _239
REMARK   93  A    between atoms: _239  and  _240
REMARK   94  A    between atoms: _239  and  _242
REMARK   95  A    between atoms: _244  and  _246
REMARK   96  A    between atoms: _246  and  _247
REMARK   97  A    between atoms: _246  and  _249
REMARK   98  A    between atoms: _249  and  _250
REMARK   99  A    between atoms: _255  and  _256
REMARK  100  A    between atoms: _258  and  _260
REMARK  101  A    between atoms: _260  and  _261
REMARK  102  A    between atoms: _264  and  _266
REMARK  103  A    between atoms: _266  and  _267
REMARK  104  A    between atoms: _266  and  _269
REMARK  105  A    between atoms: _269  and  _270
REMARK  106  A    between atoms: _272  and  _274
REMARK  107  A    between atoms: _274  and  _275
REMARK  108  A    between atoms: _274  and  _277
REMARK  109  A    between atoms: _277  and  _278
REMARK  110  A    between atoms: _281  and  _283
REMARK  111  A    between atoms: _283  and  _284
REMARK  112  A    between atoms: _283  and  _286
REMARK  113  A    between atoms: _286  and  _287
REMARK  114  A    between atoms: _292  and  _293
REMARK  115  A    between atoms: _295  and  _297
REMARK  116  A    between atoms: _297  and  _298
REMARK  117  A    between atoms: _297  and  _300
REMARK  118  A    between atoms: _300  and  _301
REMARK  119  A    between atoms: _304  and  _306
REMARK  120  A    between atoms: _306  and  _307
REMARK  121  A    between atoms: _306  and  _309
REMARK  122  A    between atoms: _309  and  _310
REMARK  123  A    between atoms: _313  and  _315
REMARK  124  A    between atoms: _315  and  _316
REMARK  125  A    between atoms: _315  and  _318
REMARK  126  A    between atoms: _318  and  _319
REMARK  127  A    between atoms: _324  and  _326
REMARK  128  A    between atoms: _326  and  _327
REMARK  129  A    between atoms: _329  and  _331
REMARK  130  A    between atoms: _331  and  _332
REMARK  131  A    between atoms: _331  and  _334
REMARK  132  A    between atoms: _334  and  _335
REMARK  133  A    between atoms: _340  and  _342
REMARK  134  A    between atoms: _342  and  _343
REMARK                            x       y       z     vdW  Elec       q    Type
REMARK                         _______ _______ _______ _____ _____    ______ ____
ROOT
ATOM      1  O   HOH     1       8.426   7.344  18.090  0.00  0.00    +0.000 OA
ENDROOT
TORSDOF 0
REMARK  Name = ../refined-set-2016/3ie3/3ie3_pocket.pdb
REMARK  134 active torsions:
REMARK  status: ('A' for Active; 'I' for Inactive)
REMARK    1  A    between atoms: _1  and  _3
REMARK    2  A    between atoms: _3  and  _4
REMARK    3  A    between atoms: _3  and  _6
REMARK    4  A    between atoms: _6  and  _7
REMARK    5  A    between atoms: _12  and  _13
REMARK    6  A    between atoms: _15  and  _17
REMARK    7  A    between atoms: _17  and  _18
REMARK    8  A    between atoms: _17  and  _20
REMARK    9  A    between atoms: _20  and  _21
REMARK   10  A    between atoms: _28  and  _29
REMARK   11  A    between atoms: _34  and  _36
REMARK   12  A    between atoms: _36  and  _37
REMARK   13  A    between atoms: _36  and  _39
REMARK   14  A    between atoms: _42  and  _44
REMARK   15  A    between atoms: _44  and  _45
REMARK   16  A    between atoms: _44  and  _47
REMARK   17  A    between atoms: _47  and  _48
REMARK   18  A    between atoms: _48  and  _49
REMARK   19  A    between atoms: _49  and  _50
REMARK   20  A    between atoms: _59  and  _61
REMARK   21  A    between atoms: _61  and  _62
REMARK   22  A    between atoms: _64  and  _66
REMARK   23  A    between atoms: _66  and  _67
REMARK   24  A    between atoms: _66  and  _69
REMARK   25  A    between atoms: _69  and  _70
REMARK   26  A    between atoms: _70  and  _71
REMARK   27  A    between atoms: _71  and  _72
REMARK   28  A    between atoms: _81  and  _83
REMARK   29  A    between atoms: _83  and  _84
REMARK   30  A    between atoms: _83  and  _86
REMARK   31  A    between atoms: _88  and  _90
REMARK   32  A    between atoms: _90  and  _91
REMARK   33  A    between atoms: _90  and  _93
REMARK   34  A    between atoms: _96  and  _98
REMARK   35  A    between atoms: _98  and  _99
REMARK   36  A    between atoms: _98  and  _101
REMARK   37  A    between atoms: _101  and  _102
REMARK   38  A    between atoms: _105  and  _107
REMARK   39  A    between atoms: _107  and  _108
REMARK   40  A    between atoms: _107  and  _110
REMARK   41  A    between atoms: _113  and  _115
REMARK   42  A    between atoms: _115  and  _116
REMARK   43  A    between atoms: _115  and  _118
REMARK   44  A    between atoms: _118  and  _119
REMARK   45  A    between atoms: _119  and  _120
REMARK   46  A    between atoms: _123  and  _125
REMARK   47  A    between atoms: _125  and  _126
REMARK   48  A    between atoms: _125  and  _128
REMARK   49  A    between atoms: _128  and  _129
REMARK   50  A    between atoms: _139  and  _141
REMARK   51  A    between atoms: _141  and  _142
REMARK   52  A    between atoms: _141  and  _144
REMARK   53  A    between atoms: _144  and  _145
REMARK   54  A    between atoms: _145  and  _146
REMARK   55  A    between atoms: _151  and  _153
REMARK   56  A    between atoms: _153  and  _154
REMARK   57  A    between atoms: _153  and  _156
REMARK   58  A    between atoms: _156  and  _157
REMARK   59  A    between atoms: _157  and  _158
REMARK   60  A    between atoms: _161  and  _163
REMARK   61  A    between atoms: _163  and  _164
REMARK   62  A    between atoms: _163  and  _166
REMARK   63  A    between atoms: _166  and  _167
REMARK   64  A    between atoms: _167  and  _168
REMARK   65  A    between atoms: _168  and  _169
REMARK   66  A    between atoms: _169  and  _170
REMARK   67  A    between atoms: _174  and  _176
REMARK   68  A    between atoms: _176  and  _177
REMARK   69  A    between atoms: _176  and  _179
REMARK   70  A    between atoms: _179  and  _180
REMARK   71  A    between atoms: _180  and  _181
REMARK   72  A    between atoms: _186  and  _188
REMARK   73  A    between atoms: _188  and  _189
REMARK   74  A    between atoms: _188  and  _191
REMARK   75  A    between atoms: _191  and  _192
REMARK   76  A    between atoms: _196  and  _197
REMARK   77  A    between atoms: _202  and  _204
REMARK   78  A    between atoms: _204  and  _205
REMARK   79  A    between atoms: _204  and  _207
REMARK   80  A    between atoms: _207  and  _208
REMARK   81  A    between atoms: _210  and  _212
REMARK   82  A    between atoms: _212  and  _213
REMARK   83  A    between atoms: _212  and  _215
REMARK   84  A    between atoms: _215  and  _216
REMARK   85  A    between atoms: _216  and  _217
REMARK   86  A    between atoms: _220  and  _222
REMARK   87  A    between atoms: _222  and  _223
REMARK   88  A    between atoms: _222  and  _225
REMARK   89  A    between atoms: _225  and  _226
REMARK   90  A    between atoms: _226  and  _227
REMARK   91  A    between atoms: _227  and  _228
REMARK   92  A    between atoms: _237  and  _239
REMARK   93  A    between atoms: _239  and  _240
REMARK   94  A    between atoms: _239  and  _242
REMARK   95  A    between atoms: _244  and  _246
REMARK   96  A    between atoms: _246  and  _247
REMARK   97  A    between atoms: _246  and  _249
REMARK   98  A    between atoms: _249  and  _250
REMARK   99  A    between atoms: _255  and  _256
REMARK  100  A    between atoms: _258  and  _260
REMARK  101  A    between atoms: _260  and  _261
REMARK  102  A    between atoms: _264  and  _266
REMARK  103  A    between atoms: _266  and  _267
REMARK  104  A    between atoms: _266  and  _269
REMARK  105  A    between atoms: _269  and  _270
REMARK  106  A    between atoms: _272  and  _274
REMARK  107  A    between atoms: _274  and  _275
REMARK  108  A    between atoms: _274  and  _277
REMARK  109  A    between atoms: _277  and  _278
REMARK  110  A    between atoms: _281  and  _283
REMARK  111  A    between atoms: _283  and  _284
REMARK  112  A    between atoms: _283  and  _286
REMARK  113  A    between atoms: _286  and  _287
REMARK  114  A    between atoms: _292  and  _293
REMARK  115  A    between atoms: _295  and  _297
REMARK  116  A    between atoms: _297  and  _298
REMARK  117  A    between atoms: _297  and  _300
REMARK  118  A    between atoms: _300  and  _301
REMARK  119  A    between atoms: _304  and  _306
REMARK  120  A    between atoms: _306  and  _307
REMARK  121  A    between atoms: _306  and  _309
REMARK  122  A    between atoms: _309  and  _310
REMARK  123  A    between atoms: _313  and  _315
REMARK  124  A    between atoms: _315  and  _316
REMARK  125  A    between atoms: _315  and  _318
REMARK  126  A    between atoms: _318  and  _319
REMARK  127  A    between atoms: _324  and  _326
REMARK  128  A    between atoms: _326  and  _327
REMARK  129  A    between atoms: _329  and  _331
REMARK  130  A    between atoms: _331  and  _332
REMARK  131  A    between atoms: _331  and  _334
REMARK  132  A    between atoms: _334  and  _335
REMARK  133  A    between atoms: _340  and  _342
REMARK  134  A    between atoms: _342  and  _343
REMARK                            x       y       z     vdW  Elec       q    Type
REMARK                         _______ _______ _______ _____ _____    ______ ____
ROOT
ATOM      1  O   HOH     1       6.504  -2.032  31.425  0.00  0.00    +0.000 OA
ENDROOT
TORSDOF 0
REMARK  Name = ../refined-set-2016/3ie3/3ie3_pocket.pdb
REMARK  134 active torsions:
REMARK  status: ('A' for Active; 'I' for Inactive)
REMARK    1  A    between atoms: _1  and  _3
REMARK    2  A    between atoms: _3  and  _4
REMARK    3  A    between atoms: _3  and  _6
REMARK    4  A    between atoms: _6  and  _7
REMARK    5  A    between atoms: _12  and  _13
REMARK    6  A    between atoms: _15  and  _17
REMARK    7  A    between atoms: _17  and  _18
REMARK    8  A    between atoms: _17  and  _20
REMARK    9  A    between atoms: _20  and  _21
REMARK   10  A    between atoms: _28  and  _29
REMARK   11  A    between atoms: _34  and  _36
REMARK   12  A    between atoms: _36  and  _37
REMARK   13  A    between atoms: _36  and  _39
REMARK   14  A    between atoms: _42  and  _44
REMARK   15  A    between atoms: _44  and  _45
REMARK   16  A    between atoms: _44  and  _47
REMARK   17  A    between atoms: _47  and  _48
REMARK   18  A    between atoms: _48  and  _49
REMARK   19  A    between atoms: _49  and  _50
REMARK   20  A    between atoms: _59  and  _61
REMARK   21  A    between atoms: _61  and  _62
REMARK   22  A    between atoms: _64  and  _66
REMARK   23  A    between atoms: _66  and  _67
REMARK   24  A    between atoms: _66  and  _69
REMARK   25  A    between atoms: _69  and  _70
REMARK   26  A    between atoms: _70  and  _71
REMARK   27  A    between atoms: _71  and  _72
REMARK   28  A    between atoms: _81  and  _83
REMARK   29  A    between atoms: _83  and  _84
REMARK   30  A    between atoms: _83  and  _86
REMARK   31  A    between atoms: _88  and  _90
REMARK   32  A    between atoms: _90  and  _91
REMARK   33  A    between atoms: _90  and  _93
REMARK   34  A    between atoms: _96  and  _98
REMARK   35  A    between atoms: _98  and  _99
REMARK   36  A    between atoms: _98  and  _101
REMARK   37  A    between atoms: _101  and  _102
REMARK   38  A    between atoms: _105  and  _107
REMARK   39  A    between atoms: _107  and  _108
REMARK   40  A    between atoms: _107  and  _110
REMARK   41  A    between atoms: _113  and  _115
REMARK   42  A    between atoms: _115  and  _116
REMARK   43  A    between atoms: _115  and  _118
REMARK   44  A    between atoms: _118  and  _119
REMARK   45  A    between atoms: _119  and  _120
REMARK   46  A    between atoms: _123  and  _125
REMARK   47  A    between atoms: _125  and  _126
REMARK   48  A    between atoms: _125  and  _128
REMARK   49  A    between atoms: _128  and  _129
REMARK   50  A    between atoms: _139  and  _141
REMARK   51  A    between atoms: _141  and  _142
REMARK   52  A    between atoms: _141  and  _144
REMARK   53  A    between atoms: _144  and  _145
REMARK   54  A    between atoms: _145  and  _146
REMARK   55  A    between atoms: _151  and  _153
REMARK   56  A    between atoms: _153  and  _154
REMARK   57  A    between atoms: _153  and  _156
REMARK   58  A    between atoms: _156  and  _157
REMARK   59  A    between atoms: _157  and  _158
REMARK   60  A    between atoms: _161  and  _163
REMARK   61  A    between atoms: _163  and  _164
REMARK   62  A    between atoms: _163  and  _166
REMARK   63  A    between atoms: _166  and  _167
REMARK   64  A    between atoms: _167  and  _168
REMARK   65  A    between atoms: _168  and  _169
REMARK   66  A    between atoms: _169  and  _170
REMARK   67  A    between atoms: _174  and  _176
REMARK   68  A    between atoms: _176  and  _177
REMARK   69  A    between atoms: _176  and  _179
REMARK   70  A    between atoms: _179  and  _180
REMARK   71  A    between atoms: _180  and  _181
REMARK   72  A    between atoms: _186  and  _188
REMARK   73  A    between atoms: _188  and  _189
REMARK   74  A    between atoms: _188  and  _191
REMARK   75  A    between atoms: _191  and  _192
REMARK   76  A    between atoms: _196  and  _197
REMARK   77  A    between atoms: _202  and  _204
REMARK   78  A    between atoms: _204  and  _205
REMARK   79  A    between atoms: _204  and  _207
REMARK   80  A    between atoms: _207  and  _208
REMARK   81  A    between atoms: _210  and  _212
REMARK   82  A    between atoms: _212  and  _213
REMARK   83  A    between atoms: _212  and  _215
REMARK   84  A    between atoms: _215  and  _216
REMARK   85  A    between atoms: _216  and  _217
REMARK   86  A    between atoms: _220  and  _222
REMARK   87  A    between atoms: _222  and  _223
REMARK   88  A    between atoms: _222  and  _225
REMARK   89  A    between atoms: _225  and  _226
REMARK   90  A    between atoms: _226  and  _227
REMARK   91  A    between atoms: _227  and  _228
REMARK   92  A    between atoms: _237  and  _239
REMARK   93  A    between atoms: _239  and  _240
REMARK   94  A    between atoms: _239  and  _242
REMARK   95  A    between atoms: _244  and  _246
REMARK   96  A    between atoms: _246  and  _247
REMARK   97  A    between atoms: _246  and  _249
REMARK   98  A    between atoms: _249  and  _250
REMARK   99  A    between atoms: _255  and  _256
REMARK  100  A    between atoms: _258  and  _260
REMARK  101  A    between atoms: _260  and  _261
REMARK  102  A    between atoms: _264  and  _266
REMARK  103  A    between atoms: _266  and  _267
REMARK  104  A    between atoms: _266  and  _269
REMARK  105  A    between atoms: _269  and  _270
REMARK  106  A    between atoms: _272  and  _274
REMARK  107  A    between atoms: _274  and  _275
REMARK  108  A    between atoms: _274  and  _277
REMARK  109  A    between atoms: _277  and  _278
REMARK  110  A    between atoms: _281  and  _283
REMARK  111  A    between atoms: _283  and  _284
REMARK  112  A    between atoms: _283  and  _286
REMARK  113  A    between atoms: _286  and  _287
REMARK  114  A    between atoms: _292  and  _293
REMARK  115  A    between atoms: _295  and  _297
REMARK  116  A    between atoms: _297  and  _298
REMARK  117  A    between atoms: _297  and  _300
REMARK  118  A    between atoms: _300  and  _301
REMARK  119  A    between atoms: _304  and  _306
REMARK  120  A    between atoms: _306  and  _307
REMARK  121  A    between atoms: _306  and  _309
REMARK  122  A    between atoms: _309  and  _310
REMARK  123  A    between atoms: _313  and  _315
REMARK  124  A    between atoms: _315  and  _316
REMARK  125  A    between atoms: _315  and  _318
REMARK  126  A    between atoms: _318  and  _319
REMARK  127  A    between atoms: _324  and  _326
REMARK  128  A    between atoms: _326  and  _327
REMARK  129  A    between atoms: _329  and  _331
REMARK  130  A    between atoms: _331  and  _332
REMARK  131  A    between atoms: _331  and  _334
REMARK  132  A    between atoms: _334  and  _335
REMARK  133  A    between atoms: _340  and  _342
REMARK  134  A    between atoms: _342  and  _343
REMARK                            x       y       z     vdW  Elec       q    Type
REMARK                         _______ _______ _______ _____ _____    ______ ____
ROOT
ATOM      1  O   HOH     1       3.205  11.924  36.353  0.00  0.00    +0.000 OA
ENDROOT
TORSDOF 0
REMARK  Name = ../refined-set-2016/3ie3/3ie3_pocket.pdb
REMARK  134 active torsions:
REMARK  status: ('A' for Active; 'I' for Inactive)
REMARK    1  A    between atoms: _1  and  _3
REMARK    2  A    between atoms: _3  and  _4
REMARK    3  A    between atoms: _3  and  _6
REMARK    4  A    between atoms: _6  and  _7
REMARK    5  A    between atoms: _12  and  _13
REMARK    6  A    between atoms: _15  and  _17
REMARK    7  A    between atoms: _17  and  _18
REMARK    8  A    between atoms: _17  and  _20
REMARK    9  A    between atoms: _20  and  _21
REMARK   10  A    between atoms: _28  and  _29
REMARK   11  A    between atoms: _34  and  _36
REMARK   12  A    between atoms: _36  and  _37
REMARK   13  A    between atoms: _36  and  _39
REMARK   14  A    between atoms: _42  and  _44
REMARK   15  A    between atoms: _44  and  _45
REMARK   16  A    between atoms: _44  and  _47
REMARK   17  A    between atoms: _47  and  _48
REMARK   18  A    between atoms: _48  and  _49
REMARK   19  A    between atoms: _49  and  _50
REMARK   20  A    between atoms: _59  and  _61
REMARK   21  A    between atoms: _61  and  _62
REMARK   22  A    between atoms: _64  and  _66
REMARK   23  A    between atoms: _66  and  _67
REMARK   24  A    between atoms: _66  and  _69
REMARK   25  A    between atoms: _69  and  _70
REMARK   26  A    between atoms: _70  and  _71
REMARK   27  A    between atoms: _71  and  _72
REMARK   28  A    between atoms: _81  and  _83
REMARK   29  A    between atoms: _83  and  _84
REMARK   30  A    between atoms: _83  and  _86
REMARK   31  A    between atoms: _88  and  _90
REMARK   32  A    between atoms: _90  and  _91
REMARK   33  A    between atoms: _90  and  _93
REMARK   34  A    between atoms: _96  and  _98
REMARK   35  A    between atoms: _98  and  _99
REMARK   36  A    between atoms: _98  and  _101
REMARK   37  A    between atoms: _101  and  _102
REMARK   38  A    between atoms: _105  and  _107
REMARK   39  A    between atoms: _107  and  _108
REMARK   40  A    between atoms: _107  and  _110
REMARK   41  A    between atoms: _113  and  _115
REMARK   42  A    between atoms: _115  and  _116
REMARK   43  A    between atoms: _115  and  _118
REMARK   44  A    between atoms: _118  and  _119
REMARK   45  A    between atoms: _119  and  _120
REMARK   46  A    between atoms: _123  and  _125
REMARK   47  A    between atoms: _125  and  _126
REMARK   48  A    between atoms: _125  and  _128
REMARK   49  A    between atoms: _128  and  _129
REMARK   50  A    between atoms: _139  and  _141
REMARK   51  A    between atoms: _141  and  _142
REMARK   52  A    between atoms: _141  and  _144
REMARK   53  A    between atoms: _144  and  _145
REMARK   54  A    between atoms: _145  and  _146
REMARK   55  A    between atoms: _151  and  _153
REMARK   56  A    between atoms: _153  and  _154
REMARK   57  A    between atoms: _153  and  _156
REMARK   58  A    between atoms: _156  and  _157
REMARK   59  A    between atoms: _157  and  _158
REMARK   60  A    between atoms: _161  and  _163
REMARK   61  A    between atoms: _163  and  _164
REMARK   62  A    between atoms: _163  and  _166
REMARK   63  A    between atoms: _166  and  _167
REMARK   64  A    between atoms: _167  and  _168
REMARK   65  A    between atoms: _168  and  _169
REMARK   66  A    between atoms: _169  and  _170
REMARK   67  A    between atoms: _174  and  _176
REMARK   68  A    between atoms: _176  and  _177
REMARK   69  A    between atoms: _176  and  _179
REMARK   70  A    between atoms: _179  and  _180
REMARK   71  A    between atoms: _180  and  _181
REMARK   72  A    between atoms: _186  and  _188
REMARK   73  A    between atoms: _188  and  _189
REMARK   74  A    between atoms: _188  and  _191
REMARK   75  A    between atoms: _191  and  _192
REMARK   76  A    between atoms: _196  and  _197
REMARK   77  A    between atoms: _202  and  _204
REMARK   78  A    between atoms: _204  and  _205
REMARK   79  A    between atoms: _204  and  _207
REMARK   80  A    between atoms: _207  and  _208
REMARK   81  A    between atoms: _210  and  _212
REMARK   82  A    between atoms: _212  and  _213
REMARK   83  A    between atoms: _212  and  _215
REMARK   84  A    between atoms: _215  and  _216
REMARK   85  A    between atoms: _216  and  _217
REMARK   86  A    between atoms: _220  and  _222
REMARK   87  A    between atoms: _222  and  _223
REMARK   88  A    between atoms: _222  and  _225
REMARK   89  A    between atoms: _225  and  _226
REMARK   90  A    between atoms: _226  and  _227
REMARK   91  A    between atoms: _227  and  _228
REMARK   92  A    between atoms: _237  and  _239
REMARK   93  A    between atoms: _239  and  _240
REMARK   94  A    between atoms: _239  and  _242
REMARK   95  A    between atoms: _244  and  _246
REMARK   96  A    between atoms: _246  and  _247
REMARK   97  A    between atoms: _246  and  _249
REMARK   98  A    between atoms: _249  and  _250
REMARK   99  A    between atoms: _255  and  _256
REMARK  100  A    between atoms: _258  and  _260
REMARK  101  A    between atoms: _260  and  _261
REMARK  102  A    between atoms: _264  and  _266
REMARK  103  A    between atoms: _266  and  _267
REMARK  104  A    between atoms: _266  and  _269
REMARK  105  A    between atoms: _269  and  _270
REMARK  106  A    between atoms: _272  and  _274
REMARK  107  A    between atoms: _274  and  _275
REMARK  108  A    between atoms: _274  and  _277
REMARK  109  A    between atoms: _277  and  _278
REMARK  110  A    between atoms: _281  and  _283
REMARK  111  A    between atoms: _283  and  _284
REMARK  112  A    between atoms: _283  and  _286
REMARK  113  A    between atoms: _286  and  _287
REMARK  114  A    between atoms: _292  and  _293
REMARK  115  A    between atoms: _295  and  _297
REMARK  116  A    between atoms: _297  and  _298
REMARK  117  A    between atoms: _297  and  _300
REMARK  118  A    between atoms: _300  and  _301
REMARK  119  A    between atoms: _304  and  _306
REMARK  120  A    between atoms: _306  and  _307
REMARK  121  A    between atoms: _306  and  _309
REMARK  122  A    between atoms: _309  and  _310
REMARK  123  A    between atoms: _313  and  _315
REMARK  124  A    between atoms: _315  and  _316
REMARK  125  A    between atoms: _315  and  _318
REMARK  126  A    between atoms: _318  and  _319
REMARK  127  A    between atoms: _324  and  _326
REMARK  128  A    between atoms: _326  and  _327
REMARK  129  A    between atoms: _329  and  _331
REMARK  130  A    between atoms: _331  and  _332
REMARK  131  A    between atoms: _331  and  _334
REMARK  132  A    between atoms: _334  and  _335
REMARK  133  A    between atoms: _340  and  _342
REMARK  134  A    between atoms: _342  and  _343
REMARK                            x       y       z     vdW  Elec       q    Type
REMARK                         _______ _______ _______ _____ _____    ______ ____
ROOT
ATOM      1  O   HOH     1       3.780   9.439  35.483  0.00  0.00    +0.000 OA
ENDROOT
TORSDOF 0
REMARK  Name = ../refined-set-2016/3ie3/3ie3_pocket.pdb
REMARK  134 active torsions:
REMARK  status: ('A' for Active; 'I' for Inactive)
REMARK    1  A    between atoms: _1  and  _3
REMARK    2  A    between atoms: _3  and  _4
REMARK    3  A    between atoms: _3  and  _6
REMARK    4  A    between atoms: _6  and  _7
REMARK    5  A    between atoms: _12  and  _13
REMARK    6  A    between atoms: _15  and  _17
REMARK    7  A    between atoms: _17  and  _18
REMARK    8  A    between atoms: _17  and  _20
REMARK    9  A    between atoms: _20  and  _21
REMARK   10  A    between atoms: _28  and  _29
REMARK   11  A    between atoms: _34  and  _36
REMARK   12  A    between atoms: _36  and  _37
REMARK   13  A    between atoms: _36  and  _39
REMARK   14  A    between atoms: _42  and  _44
REMARK   15  A    between atoms: _44  and  _45
REMARK   16  A    between atoms: _44  and  _47
REMARK   17  A    between atoms: _47  and  _48
REMARK   18  A    between atoms: _48  and  _49
REMARK   19  A    between atoms: _49  and  _50
REMARK   20  A    between atoms: _59  and  _61
REMARK   21  A    between atoms: _61  and  _62
REMARK   22  A    between atoms: _64  and  _66
REMARK   23  A    between atoms: _66  and  _67
REMARK   24  A    between atoms: _66  and  _69
REMARK   25  A    between atoms: _69  and  _70
REMARK   26  A    between atoms: _70  and  _71
REMARK   27  A    between atoms: _71  and  _72
REMARK   28  A    between atoms: _81  and  _83
REMARK   29  A    between atoms: _83  and  _84
REMARK   30  A    between atoms: _83  and  _86
REMARK   31  A    between atoms: _88  and  _90
REMARK   32  A    between atoms: _90  and  _91
REMARK   33  A    between atoms: _90  and  _93
REMARK   34  A    between atoms: _96  and  _98
REMARK   35  A    between atoms: _98  and  _99
REMARK   36  A    between atoms: _98  and  _101
REMARK   37  A    between atoms: _101  and  _102
REMARK   38  A    between atoms: _105  and  _107
REMARK   39  A    between atoms: _107  and  _108
REMARK   40  A    between atoms: _107  and  _110
REMARK   41  A    between atoms: _113  and  _115
REMARK   42  A    between atoms: _115  and  _116
REMARK   43  A    between atoms: _115  and  _118
REMARK   44  A    between atoms: _118  and  _119
REMARK   45  A    between atoms: _119  and  _120
REMARK   46  A    between atoms: _123  and  _125
REMARK   47  A    between atoms: _125  and  _126
REMARK   48  A    between atoms: _125  and  _128
REMARK   49  A    between atoms: _128  and  _129
REMARK   50  A    between atoms: _139  and  _141
REMARK   51  A    between atoms: _141  and  _142
REMARK   52  A    between atoms: _141  and  _144
REMARK   53  A    between atoms: _144  and  _145
REMARK   54  A    between atoms: _145  and  _146
REMARK   55  A    between atoms: _151  and  _153
REMARK   56  A    between atoms: _153  and  _154
REMARK   57  A    between atoms: _153  and  _156
REMARK   58  A    between atoms: _156  and  _157
REMARK   59  A    between atoms: _157  and  _158
REMARK   60  A    between atoms: _161  and  _163
REMARK   61  A    between atoms: _163  and  _164
REMARK   62  A    between atoms: _163  and  _166
REMARK   63  A    between atoms: _166  and  _167
REMARK   64  A    between atoms: _167  and  _168
REMARK   65  A    between atoms: _168  and  _169
REMARK   66  A    between atoms: _169  and  _170
REMARK   67  A    between atoms: _174  and  _176
REMARK   68  A    between atoms: _176  and  _177
REMARK   69  A    between atoms: _176  and  _179
REMARK   70  A    between atoms: _179  and  _180
REMARK   71  A    between atoms: _180  and  _181
REMARK   72  A    between atoms: _186  and  _188
REMARK   73  A    between atoms: _188  and  _189
REMARK   74  A    between atoms: _188  and  _191
REMARK   75  A    between atoms: _191  and  _192
REMARK   76  A    between atoms: _196  and  _197
REMARK   77  A    between atoms: _202  and  _204
REMARK   78  A    between atoms: _204  and  _205
REMARK   79  A    between atoms: _204  and  _207
REMARK   80  A    between atoms: _207  and  _208
REMARK   81  A    between atoms: _210  and  _212
REMARK   82  A    between atoms: _212  and  _213
REMARK   83  A    between atoms: _212  and  _215
REMARK   84  A    between atoms: _215  and  _216
REMARK   85  A    between atoms: _216  and  _217
REMARK   86  A    between atoms: _220  and  _222
REMARK   87  A    between atoms: _222  and  _223
REMARK   88  A    between atoms: _222  and  _225
REMARK   89  A    between atoms: _225  and  _226
REMARK   90  A    between atoms: _226  and  _227
REMARK   91  A    between atoms: _227  and  _228
REMARK   92  A    between atoms: _237  and  _239
REMARK   93  A    between atoms: _239  and  _240
REMARK   94  A    between atoms: _239  and  _242
REMARK   95  A    between atoms: _244  and  _246
REMARK   96  A    between atoms: _246  and  _247
REMARK   97  A    between atoms: _246  and  _249
REMARK   98  A    between atoms: _249  and  _250
REMARK   99  A    between atoms: _255  and  _256
REMARK  100  A    between atoms: _258  and  _260
REMARK  101  A    between atoms: _260  and  _261
REMARK  102  A    between atoms: _264  and  _266
REMARK  103  A    between atoms: _266  and  _267
REMARK  104  A    between atoms: _266  and  _269
REMARK  105  A    between atoms: _269  and  _270
REMARK  106  A    between atoms: _272  and  _274
REMARK  107  A    between atoms: _274  and  _275
REMARK  108  A    between atoms: _274  and  _277
REMARK  109  A    between atoms: _277  and  _278
REMARK  110  A    between atoms: _281  and  _283
REMARK  111  A    between atoms: _283  and  _284
REMARK  112  A    between atoms: _283  and  _286
REMARK  113  A    between atoms: _286  and  _287
REMARK  114  A    between atoms: _292  and  _293
REMARK  115  A    between atoms: _295  and  _297
REMARK  116  A    between atoms: _297  and  _298
REMARK  117  A    between atoms: _297  and  _300
REMARK  118  A    between atoms: _300  and  _301
REMARK  119  A    between atoms: _304  and  _306
REMARK  120  A    between atoms: _306  and  _307
REMARK  121  A    between atoms: _306  and  _309
REMARK  122  A    between atoms: _309  and  _310
REMARK  123  A    between atoms: _313  and  _315
REMARK  124  A    between atoms: _315  and  _316
REMARK  125  A    between atoms: _315  and  _318
REMARK  126  A    between atoms: _318  and  _319
REMARK  127  A    between atoms: _324  and  _326
REMARK  128  A    between atoms: _326  and  _327
REMARK  129  A    between atoms: _329  and  _331
REMARK  130  A    between atoms: _331  and  _332
REMARK  131  A    between atoms: _331  and  _334
REMARK  132  A    between atoms: _334  and  _335
REMARK  133  A    between atoms: _340  and  _342
REMARK  134  A    between atoms: _342  and  _343
REMARK                            x       y       z     vdW  Elec       q    Type
REMARK                         _______ _______ _______ _____ _____    ______ ____
ROOT
ATOM      1  O   HOH     1      12.070  11.633  18.498  0.00  0.00    +0.000 OA
ENDROOT
TORSDOF 0
