REMARK  Name = ../refined-set-2016/1ew9/1ew9_pocket.pdb
REMARK  114 active torsions:
REMARK  status: ('A' for Active; 'I' for Inactive)
REMARK    1  A    between atoms: _1  and  _3
REMARK    2  A    between atoms: _3  and  _4
REMARK    3  A    between atoms: _3  and  _6
REMARK    4  A    between atoms: _6  and  _7
REMARK    5  A    between atoms: _7  and  _8
REMARK    6  A    between atoms: _7  and  _9
REMARK    7  A    between atoms: _8  and  ZN_261
REMARK    8  A    between atoms: _9  and  MG_262
REMARK    9  A    between atoms: _10  and  _12
REMARK   10  A    between atoms: _12  and  _13
REMARK   11  A    between atoms: _15  and  _17
REMARK   12  A    between atoms: _17  and  _18
REMARK   13  A    between atoms: _17  and  _20
REMARK   14  A    between atoms: _23  and  _25
REMARK   15  A    between atoms: _25  and  _26
REMARK   16  A    between atoms: _25  and  _28
REMARK   17  A    between atoms: _28  and  _29
REMARK   18  A    between atoms: _32  and  _34
REMARK   19  A    between atoms: _34  and  _35
REMARK   20  A    between atoms: _34  and  _37
REMARK   21  A    between atoms: _37  and  _38
REMARK   22  A    between atoms: _41  and  _43
REMARK   23  A    between atoms: _43  and  _44
REMARK   24  A    between atoms: _43  and  _46
REMARK   25  A    between atoms: _46  and  _47
REMARK   26  A    between atoms: _49  and  _51
REMARK   27  A    between atoms: _51  and  _52
REMARK   28  A    between atoms: _55  and  _57
REMARK   29  A    between atoms: _57  and  _58
REMARK   30  A    between atoms: _61  and  _63
REMARK   31  A    between atoms: _63  and  _64
REMARK   32  A    between atoms: _63  and  _66
REMARK   33  A    between atoms: _66  and  _67
REMARK   34  A    between atoms: _69  and  _71
REMARK   35  A    between atoms: _71  and  _72
REMARK   36  A    between atoms: _71  and  _74
REMARK   37  A    between atoms: _74  and  _75
REMARK   38  A    between atoms: _80  and  _82
REMARK   39  A    between atoms: _82  and  _83
REMARK   40  A    between atoms: _85  and  _87
REMARK   41  A    between atoms: _87  and  _88
REMARK   42  A    between atoms: _87  and  _90
REMARK   43  A    between atoms: _90  and  _91
REMARK   44  A    between atoms: _94  and  _96
REMARK   45  A    between atoms: _96  and  _97
REMARK   46  A    between atoms: _100  and  _102
REMARK   47  A    between atoms: _102  and  _103
REMARK   48  A    between atoms: _102  and  _105
REMARK   49  A    between atoms: _105  and  _106
REMARK   50  A    between atoms: _109  and  _111
REMARK   51  A    between atoms: _111  and  _112
REMARK   52  A    between atoms: _111  and  _114
REMARK   53  A    between atoms: _114  and  _115
REMARK   54  A    between atoms: _115  and  _116
REMARK   55  A    between atoms: _116  and  _117
REMARK   56  A    between atoms: _126  and  _128
REMARK   57  A    between atoms: _128  and  _129
REMARK   58  A    between atoms: _128  and  _131
REMARK   59  A    between atoms: _131  and  _132
REMARK   60  A    between atoms: _132  and  _133
REMARK   61  A    between atoms: _133  and  _134
REMARK   62  A    between atoms: _134  and  _135
REMARK   63  A    between atoms: _139  and  _141
REMARK   64  A    between atoms: _141  and  _142
REMARK   65  A    between atoms: _141  and  _144
REMARK   66  A    between atoms: _144  and  _145
REMARK   67  A    between atoms: _145  and  _146
REMARK   68  A    between atoms: _146  and  _148
REMARK   69  A    between atoms: _148  and  MG_262
REMARK   70  A    between atoms: _149  and  _151
REMARK   71  A    between atoms: _151  and  _152
REMARK   72  A    between atoms: _155  and  _157
REMARK   73  A    between atoms: _157  and  _158
REMARK   74  A    between atoms: _157  and  _160
REMARK   75  A    between atoms: _160  and  _161
REMARK   76  A    between atoms: _161  and  _162
REMARK   77  A    between atoms: _162  and  ZN_260
REMARK   78  A    between atoms: _164  and  _166
REMARK   79  A    between atoms: _166  and  _167
REMARK   80  A    between atoms: _166  and  _169
REMARK   81  A    between atoms: _169  and  _170
REMARK   82  A    between atoms: _170  and  _171
REMARK   83  A    between atoms: _171  and  _172
REMARK   84  A    between atoms: _172  and  _173
REMARK   85  A    between atoms: _177  and  _179
REMARK   86  A    between atoms: _179  and  _180
REMARK   87  A    between atoms: _179  and  _182
REMARK   88  A    between atoms: _182  and  _183
REMARK   89  A    between atoms: _187  and  ZN_260
REMARK   90  A    between atoms: _188  and  _190
REMARK   91  A    between atoms: _199  and  _200
REMARK   92  A    between atoms: _208  and  _210
REMARK   93  A    between atoms: _210  and  _211
REMARK   94  A    between atoms: _210  and  _213
REMARK   95  A    between atoms: _213  and  _214
REMARK   96  A    between atoms: _219  and  _221
REMARK   97  A    between atoms: _221  and  _222
REMARK   98  A    between atoms: _221  and  _224
REMARK   99  A    between atoms: _224  and  _225
REMARK  100  A    between atoms: _227  and  _229
REMARK  101  A    between atoms: _229  and  _230
REMARK  102  A    between atoms: _229  and  _232
REMARK  103  A    between atoms: _232  and  _233
REMARK  104  A    between atoms: _233  and  _234
REMARK  105  A    between atoms: _239  and  _241
REMARK  106  A    between atoms: _241  and  _242
REMARK  107  A    between atoms: _241  and  _244
REMARK  108  A    between atoms: _244  and  _245
REMARK  109  A    between atoms: _245  and  _246
REMARK  110  A    between atoms: _249  and  _251
REMARK  111  A    between atoms: _251  and  _252
REMARK  112  A    between atoms: _251  and  _254
REMARK  113  A    between atoms: _254  and  _255
REMARK  114  A    between atoms: _259  and  ZN_260
REMARK                            x       y       z     vdW  Elec       q    Type
REMARK                         _______ _______ _______ _____ _____    ______ ____
ROOT
ATOM      1  C   UNK A   1      71.944  41.287  39.251  0.00  0.00    +0.000 C 
ENDROOT
BRANCH   1   2
ATOM      2  O   UNK A   1      73.077  41.804  39.390  0.00  0.00    +0.000 OA
BRANCH   2   3
ATOM      3 MG   UNK A   1      73.786  43.550  40.057  0.00  0.00    +0.000 Mg
BRANCH   3   4
ATOM      4  O   UNK A   1      72.981  44.700  38.682  0.00  0.00    +0.000 OA
BRANCH   4   5
ATOM      5  C   UNK A   1      73.177  45.864  38.216  0.00  0.00    +0.000 C 
ATOM      6  O   UNK A   1      73.837  46.724  38.858  0.00  0.00    +0.000 OA
BRANCH   5   7
ATOM      7  C   UNK A   1      72.540  46.176  36.909  0.00  0.00    +0.000 C 
BRANCH   7   8
ATOM      8  C   UNK A   1      73.056  47.377  36.140  0.00  0.00    +0.000 C 
BRANCH   8   9
ATOM      9  C   UNK A   1      71.987  47.838  35.094  0.00  0.00    +0.000 C 
BRANCH   9  10
ATOM     10  N   UNK A   1      72.477  48.870  34.247  0.00  0.00    +0.000 NA
ATOM     11  H   UNK A   1      72.790  49.761  34.683  0.00  0.00    +0.000 HD
ENDBRANCH   9  10
BRANCH   9  12
ATOM     12  C   UNK A   1      70.710  48.145  35.864  0.00  0.00    +0.000 C 
ATOM     13  O   UNK A   1      70.695  49.036  36.719  0.00  0.00    +0.000 OA
ENDBRANCH   9  12
ENDBRANCH   8   9
ENDBRANCH   7   8
ENDBRANCH   5   7
ENDBRANCH   4   5
ENDBRANCH   3   4
ENDBRANCH   2   3
ENDBRANCH   1   2
BRANCH   1  14
ATOM     14  O   UNK A   1      71.683  40.126  39.629  0.00  0.00    +0.000 OA
BRANCH  14  15
ATOM     15 ZN   UNK A   2      73.285  38.962  39.844  0.00  0.00    +0.000 Zn
ATOM     16  N   UNK A   2      72.706  36.865  39.728  0.00  0.00    +0.000 N 
ATOM     17  C   UNK A   2      71.507  36.315  39.843  0.00  0.00    +0.000 A 
ATOM     18  N   UNK A   2      71.412  35.310  38.987  0.00  0.00    +0.000 NA
ATOM     19  C   UNK A   2      72.601  35.215  38.300  0.00  0.00    +0.000 A 
ATOM     20  C   UNK A   2      72.817  34.205  37.214  0.00  0.00    +0.000 C 
ATOM     21  C   UNK A   2      72.070  34.642  35.912  0.00  0.00    +0.000 C 
ATOM     22  N   UNK A   2      72.449  35.997  35.560  0.00  0.00    +0.000 N 
ATOM     23  H   UNK A   2      71.776  36.772  35.727  0.00  0.00    +0.000 HD
ATOM     24  C   UNK A   1      73.639  36.272  35.028  0.00  0.00    +0.000 C 
ATOM     25  O   UNK A   1      74.489  35.389  34.857  0.00  0.00    +0.000 OA
ATOM     26  C   UNK A   1      73.889  37.716  34.658  0.00  0.00    +0.000 C 
ATOM     27  C   UNK A   1      74.482  38.489  35.833  0.00  0.00    +0.000 C 
ATOM     28  C   UNK A   1      73.518  38.732  36.949  0.00  0.00    +0.000 C 
ATOM     29  O   UNK A   1      72.285  38.641  36.758  0.00  0.00    +0.000 OA
ATOM     30  C   UNK A   2      73.403  36.213  38.752  0.00  0.00    +0.000 A 
ATOM     31  O   UNK A   1      73.981  38.999  38.085  0.00  0.00    +0.000 OA
BRANCH  21  32
ATOM     32  C   UNK A   2      70.576  34.513  36.152  0.00  0.00    +0.000 C 
ATOM     33  O   UNK A   2      69.866  35.501  36.219  0.00  0.00    +0.000 OA
ENDBRANCH  21  32
BRANCH  26  34
ATOM     34  N   UNK A   1      72.651  38.387  34.248  0.00  0.00    +0.000 NA
ATOM     35  H   UNK A   1      72.149  39.006  34.916  0.00  0.00    +0.000 HD
ENDBRANCH  26  34
ENDBRANCH  14  15
ENDBRANCH   1  14
BRANCH   1  36
ATOM     36  C   UNK A   1      70.841  42.106  38.590  0.00  0.00    +0.000 C 
BRANCH  36  37
ATOM     37  C   UNK A   1      70.287  41.362  37.345  0.00  0.00    +0.000 C 
BRANCH  37  38
ATOM     38  C   UNK A   1      69.257  40.336  37.805  0.00  0.00    +0.000 C 
ATOM     39  O   UNK A   1      68.206  40.707  38.342  0.00  0.00    +0.000 OA
ATOM     40  N   UNK A   2      69.545  39.051  37.586  0.00  0.00    +0.000 N 
ATOM     41  H   UNK A   2      70.441  38.797  37.124  0.00  0.00    +0.000 HD
BRANCH  40  42
ATOM     42  C   UNK A   2      68.625  38.008  37.984  0.00  0.00    +0.000 C 
BRANCH  42  43
ATOM     43  C   UNK A   2      67.392  37.866  37.129  0.00  0.00    +0.000 C 
ATOM     44  O   UNK A   2      66.453  37.163  37.523  0.00  0.00    +0.000 OA
ENDBRANCH  42  43
ENDBRANCH  40  42
ENDBRANCH  37  38
BRANCH  37  45
ATOM     45  N   UNK A   1      69.609  42.347  36.452  0.00  0.00    +0.000 NA
ATOM     46  H   UNK A   1      69.470  43.338  36.734  0.00  0.00    +0.000 HD
ENDBRANCH  37  45
ENDBRANCH  36  37
ENDBRANCH   1  36
TORSDOF 19
REMARK  Name = ../refined-set-2016/1ew9/1ew9_pocket.pdb
REMARK  114 active torsions:
REMARK  status: ('A' for Active; 'I' for Inactive)
REMARK    1  A    between atoms: _1  and  _3
REMARK    2  A    between atoms: _3  and  _4
REMARK    3  A    between atoms: _3  and  _6
REMARK    4  A    between atoms: _6  and  _7
REMARK    5  A    between atoms: _7  and  _8
REMARK    6  A    between atoms: _7  and  _9
REMARK    7  A    between atoms: _8  and  ZN_261
REMARK    8  A    between atoms: _9  and  MG_262
REMARK    9  A    between atoms: _10  and  _12
REMARK   10  A    between atoms: _12  and  _13
REMARK   11  A    between atoms: _15  and  _17
REMARK   12  A    between atoms: _17  and  _18
REMARK   13  A    between atoms: _17  and  _20
REMARK   14  A    between atoms: _23  and  _25
REMARK   15  A    between atoms: _25  and  _26
REMARK   16  A    between atoms: _25  and  _28
REMARK   17  A    between atoms: _28  and  _29
REMARK   18  A    between atoms: _32  and  _34
REMARK   19  A    between atoms: _34  and  _35
REMARK   20  A    between atoms: _34  and  _37
REMARK   21  A    between atoms: _37  and  _38
REMARK   22  A    between atoms: _41  and  _43
REMARK   23  A    between atoms: _43  and  _44
REMARK   24  A    between atoms: _43  and  _46
REMARK   25  A    between atoms: _46  and  _47
REMARK   26  A    between atoms: _49  and  _51
REMARK   27  A    between atoms: _51  and  _52
REMARK   28  A    between atoms: _55  and  _57
REMARK   29  A    between atoms: _57  and  _58
REMARK   30  A    between atoms: _61  and  _63
REMARK   31  A    between atoms: _63  and  _64
REMARK   32  A    between atoms: _63  and  _66
REMARK   33  A    between atoms: _66  and  _67
REMARK   34  A    between atoms: _69  and  _71
REMARK   35  A    between atoms: _71  and  _72
REMARK   36  A    between atoms: _71  and  _74
REMARK   37  A    between atoms: _74  and  _75
REMARK   38  A    between atoms: _80  and  _82
REMARK   39  A    between atoms: _82  and  _83
REMARK   40  A    between atoms: _85  and  _87
REMARK   41  A    between atoms: _87  and  _88
REMARK   42  A    between atoms: _87  and  _90
REMARK   43  A    between atoms: _90  and  _91
REMARK   44  A    between atoms: _94  and  _96
REMARK   45  A    between atoms: _96  and  _97
REMARK   46  A    between atoms: _100  and  _102
REMARK   47  A    between atoms: _102  and  _103
REMARK   48  A    between atoms: _102  and  _105
REMARK   49  A    between atoms: _105  and  _106
REMARK   50  A    between atoms: _109  and  _111
REMARK   51  A    between atoms: _111  and  _112
REMARK   52  A    between atoms: _111  and  _114
REMARK   53  A    between atoms: _114  and  _115
REMARK   54  A    between atoms: _115  and  _116
REMARK   55  A    between atoms: _116  and  _117
REMARK   56  A    between atoms: _126  and  _128
REMARK   57  A    between atoms: _128  and  _129
REMARK   58  A    between atoms: _128  and  _131
REMARK   59  A    between atoms: _131  and  _132
REMARK   60  A    between atoms: _132  and  _133
REMARK   61  A    between atoms: _133  and  _134
REMARK   62  A    between atoms: _134  and  _135
REMARK   63  A    between atoms: _139  and  _141
REMARK   64  A    between atoms: _141  and  _142
REMARK   65  A    between atoms: _141  and  _144
REMARK   66  A    between atoms: _144  and  _145
REMARK   67  A    between atoms: _145  and  _146
REMARK   68  A    between atoms: _146  and  _148
REMARK   69  A    between atoms: _148  and  MG_262
REMARK   70  A    between atoms: _149  and  _151
REMARK   71  A    between atoms: _151  and  _152
REMARK   72  A    between atoms: _155  and  _157
REMARK   73  A    between atoms: _157  and  _158
REMARK   74  A    between atoms: _157  and  _160
REMARK   75  A    between atoms: _160  and  _161
REMARK   76  A    between atoms: _161  and  _162
REMARK   77  A    between atoms: _162  and  ZN_260
REMARK   78  A    between atoms: _164  and  _166
REMARK   79  A    between atoms: _166  and  _167
REMARK   80  A    between atoms: _166  and  _169
REMARK   81  A    between atoms: _169  and  _170
REMARK   82  A    between atoms: _170  and  _171
REMARK   83  A    between atoms: _171  and  _172
REMARK   84  A    between atoms: _172  and  _173
REMARK   85  A    between atoms: _177  and  _179
REMARK   86  A    between atoms: _179  and  _180
REMARK   87  A    between atoms: _179  and  _182
REMARK   88  A    between atoms: _182  and  _183
REMARK   89  A    between atoms: _187  and  ZN_260
REMARK   90  A    between atoms: _188  and  _190
REMARK   91  A    between atoms: _199  and  _200
REMARK   92  A    between atoms: _208  and  _210
REMARK   93  A    between atoms: _210  and  _211
REMARK   94  A    between atoms: _210  and  _213
REMARK   95  A    between atoms: _213  and  _214
REMARK   96  A    between atoms: _219  and  _221
REMARK   97  A    between atoms: _221  and  _222
REMARK   98  A    between atoms: _221  and  _224
REMARK   99  A    between atoms: _224  and  _225
REMARK  100  A    between atoms: _227  and  _229
REMARK  101  A    between atoms: _229  and  _230
REMARK  102  A    between atoms: _229  and  _232
REMARK  103  A    between atoms: _232  and  _233
REMARK  104  A    between atoms: _233  and  _234
REMARK  105  A    between atoms: _239  and  _241
REMARK  106  A    between atoms: _241  and  _242
REMARK  107  A    between atoms: _241  and  _244
REMARK  108  A    between atoms: _244  and  _245
REMARK  109  A    between atoms: _245  and  _246
REMARK  110  A    between atoms: _249  and  _251
REMARK  111  A    between atoms: _251  and  _252
REMARK  112  A    between atoms: _251  and  _254
REMARK  113  A    between atoms: _254  and  _255
REMARK  114  A    between atoms: _259  and  ZN_260
REMARK                            x       y       z     vdW  Elec       q    Type
REMARK                         _______ _______ _______ _____ _____    ______ ____
ROOT
ATOM      1  C   ASP A   3      77.025  36.007  40.850  0.00  0.00    +0.241 C 
ATOM      2  N   SER A   4      76.745  37.218  41.285  0.00  0.00    -0.295 N 
ATOM      3  H   SER A   4      76.533  37.364  42.293  0.00  0.00    +0.150 HD
ATOM      4  O   ASP A   3      77.343  35.773  39.670  0.00  0.00    -0.273 OA
ENDROOT
BRANCH   2   5
ATOM      5  CA  SER A   4      76.728  38.359  40.372  0.00  0.00    +0.178 C 
BRANCH   5   6
ATOM      6  C   SER A   4      78.109  38.764  39.917  0.00  0.00    +0.243 C 
ATOM      7  N   ALA A   5      79.102  38.551  40.757  0.00  0.00    -0.297 N 
ATOM      8  H   ALA A   5      78.899  38.063  41.653  0.00  0.00    +0.150 HD
ATOM      9  O   SER A   4      78.276  39.320  38.814  0.00  0.00    -0.273 OA
BRANCH   7  10
ATOM     10  CA  ALA A   5      80.469  38.967  40.488  0.00  0.00    +0.149 C 
ATOM     11  CB  ALA A   5      81.269  38.858  41.795  0.00  0.00    +0.031 C 
BRANCH  10  12
ATOM     12  C   ALA A   5      81.133  38.147  39.411  0.00  0.00    +0.241 C 
ATOM     13  N   ALA A   6      81.026  36.813  39.530  0.00  0.00    -0.297 N 
ATOM     14  H   ALA A   6      80.475  36.404  40.311  0.00  0.00    +0.150 HD
ATOM     15  O   ALA A   5      81.759  38.646  38.490  0.00  0.00    -0.273 OA
BRANCH  13  16
ATOM     16  CA  ALA A   6      81.678  35.944  38.571  0.00  0.00    +0.149 C 
ATOM     17  CB  ALA A   6      81.772  34.505  39.019  0.00  0.00    +0.031 C 
BRANCH  16  18
ATOM     18  C   ALA A   6      81.093  36.063  37.188  0.00  0.00    +0.241 C 
ATOM     19  N   SER A   7      79.765  36.284  37.128  0.00  0.00    -0.296 N 
ATOM     20  H   SER A   7      79.204  36.368  38.000  0.00  0.00    +0.150 HD
ATOM     21  O   ALA A   6      81.799  35.932  36.196  0.00  0.00    -0.273 OA
BRANCH  19  22
ATOM     22  CA  SER A   7      79.122  36.405  35.814  0.00  0.00    +0.166 C 
BRANCH  22  23
ATOM     23  C   SER A   7      79.461  37.714  35.164  0.00  0.00    +0.229 C 
ATOM     24  O   SER A   7      79.725  37.872  33.990  0.00  0.00    -0.286 OA
ENDBRANCH  22  23
BRANCH  22  25
ATOM     25  CB  SER A   7      77.604  36.216  35.948  0.00  0.00    +0.165 C 
BRANCH  25  26
ATOM     26  OG  SER A   7      77.126  36.964  37.062  0.00  0.00    -0.380 OA
ATOM     27  H   SER A   7      77.572  36.646  37.887  0.00  0.00    +0.211 HD
ENDBRANCH  25  26
ENDBRANCH  22  25
ENDBRANCH  19  22
ENDBRANCH  16  18
ENDBRANCH  13  16
ENDBRANCH  10  12
ENDBRANCH   7  10
ENDBRANCH   5   6
BRANCH   5  28
ATOM     28  CB  SER A   4      75.985  39.535  41.006  0.00  0.00    +0.166 C 
BRANCH  28  29
ATOM     29  OG  SER A   4      74.576  39.263  41.038  0.00  0.00    -0.380 OA
ATOM     30  H   SER A   4      74.246  39.127  40.114  0.00  0.00    +0.211 HD
ENDBRANCH  28  29
ENDBRANCH   5  28
ENDBRANCH   2   5
BRANCH   1  31
ATOM     31  CA  ASP A   3      76.950  34.820  41.844  0.00  0.00    +0.160 C 
BRANCH  31  33
ATOM     32  C   THR A   2      76.462  32.764  40.587  0.00  0.00    +0.243 C 
ATOM     33  N   ASP A   3      77.345  33.624  41.125  0.00  0.00    -0.296 N 
ATOM     34  H   ASP A   3      78.360  33.422  41.020  0.00  0.00    +0.150 HD
ATOM     35  O   THR A   2      75.261  32.868  40.781  0.00  0.00    -0.273 OA
BRANCH  32  36
ATOM     36  CA  THR A   2      77.064  31.713  39.683  0.00  0.00    +0.176 C 
BRANCH  36  39
ATOM     37  C   VAL A   1      76.173  29.552  40.401  0.00  0.00    +0.238 C 
ATOM     38  O   VAL A   1      76.724  29.510  41.483  0.00  0.00    -0.274 OA
ATOM     39  N   THR A   2      76.289  30.527  39.531  0.00  0.00    -0.295 N 
ATOM     40  H   THR A   2      75.762  30.424  38.640  0.00  0.00    +0.150 HD
BRANCH  37  41
ATOM     41  CA  VAL A   1      75.228  28.425  39.968  0.00  0.00    +0.145 C 
BRANCH  41  42
ATOM     42  CB  VAL A   1      74.218  28.181  41.120  0.00  0.00    +0.025 C 
ATOM     43  CG2 VAL A   1      73.306  29.388  41.259  0.00  0.00    +0.002 C 
ATOM     44  CG1 VAL A   1      73.402  26.936  40.832  0.00  0.00    +0.002 C 
ENDBRANCH  41  42
BRANCH  41  45
ATOM     45  N   VAL A   1      75.984  27.235  39.659  0.00  0.00    -0.238 NA
ATOM     46  H   VAL A   1      76.595  26.840  40.402  0.00  0.00    +0.142 HD
ENDBRANCH  41  45
ENDBRANCH  37  41
ENDBRANCH  36  39
BRANCH  36  47
ATOM     47  CB  THR A   2      77.340  32.339  38.281  0.00  0.00    +0.137 C 
ATOM     48  CG2 THR A   2      76.070  33.010  37.750  0.00  0.00    +0.034 C 
BRANCH  47  49
ATOM     49  OG1 THR A   2      78.364  33.318  38.355  0.00  0.00    -0.382 OA
ATOM     50  HG1 THR A   2      78.520  33.699  37.455  0.00  0.00    +0.210 HD
ENDBRANCH  47  49
ENDBRANCH  36  47
ENDBRANCH  32  36
ENDBRANCH  31  33
BRANCH  31  51
ATOM     51  CB  ASP A   3      77.755  35.091  43.072  0.00  0.00    +0.143 C 
BRANCH  51  52
ATOM     52  CG  ASP A   3      79.128  35.689  42.828  0.00  0.00    +0.367 C 
ATOM     53  OD2 ASP A   3      79.690  36.296  43.769  0.00  0.00    -0.246 OA
ATOM     54  OD1 ASP A   3      79.658  35.590  41.707  0.00  0.00    -0.246 OA
ENDBRANCH  51  52
ENDBRANCH  31  51
ENDBRANCH   1  31
TORSDOF 23
REMARK  Name = ../refined-set-2016/1ew9/1ew9_pocket.pdb
REMARK  114 active torsions:
REMARK  status: ('A' for Active; 'I' for Inactive)
REMARK    1  A    between atoms: _1  and  _3
REMARK    2  A    between atoms: _3  and  _4
REMARK    3  A    between atoms: _3  and  _6
REMARK    4  A    between atoms: _6  and  _7
REMARK    5  A    between atoms: _7  and  _8
REMARK    6  A    between atoms: _7  and  _9
REMARK    7  A    between atoms: _8  and  ZN_261
REMARK    8  A    between atoms: _9  and  MG_262
REMARK    9  A    between atoms: _10  and  _12
REMARK   10  A    between atoms: _12  and  _13
REMARK   11  A    between atoms: _15  and  _17
REMARK   12  A    between atoms: _17  and  _18
REMARK   13  A    between atoms: _17  and  _20
REMARK   14  A    between atoms: _23  and  _25
REMARK   15  A    between atoms: _25  and  _26
REMARK   16  A    between atoms: _25  and  _28
REMARK   17  A    between atoms: _28  and  _29
REMARK   18  A    between atoms: _32  and  _34
REMARK   19  A    between atoms: _34  and  _35
REMARK   20  A    between atoms: _34  and  _37
REMARK   21  A    between atoms: _37  and  _38
REMARK   22  A    between atoms: _41  and  _43
REMARK   23  A    between atoms: _43  and  _44
REMARK   24  A    between atoms: _43  and  _46
REMARK   25  A    between atoms: _46  and  _47
REMARK   26  A    between atoms: _49  and  _51
REMARK   27  A    between atoms: _51  and  _52
REMARK   28  A    between atoms: _55  and  _57
REMARK   29  A    between atoms: _57  and  _58
REMARK   30  A    between atoms: _61  and  _63
REMARK   31  A    between atoms: _63  and  _64
REMARK   32  A    between atoms: _63  and  _66
REMARK   33  A    between atoms: _66  and  _67
REMARK   34  A    between atoms: _69  and  _71
REMARK   35  A    between atoms: _71  and  _72
REMARK   36  A    between atoms: _71  and  _74
REMARK   37  A    between atoms: _74  and  _75
REMARK   38  A    between atoms: _80  and  _82
REMARK   39  A    between atoms: _82  and  _83
REMARK   40  A    between atoms: _85  and  _87
REMARK   41  A    between atoms: _87  and  _88
REMARK   42  A    between atoms: _87  and  _90
REMARK   43  A    between atoms: _90  and  _91
REMARK   44  A    between atoms: _94  and  _96
REMARK   45  A    between atoms: _96  and  _97
REMARK   46  A    between atoms: _100  and  _102
REMARK   47  A    between atoms: _102  and  _103
REMARK   48  A    between atoms: _102  and  _105
REMARK   49  A    between atoms: _105  and  _106
REMARK   50  A    between atoms: _109  and  _111
REMARK   51  A    between atoms: _111  and  _112
REMARK   52  A    between atoms: _111  and  _114
REMARK   53  A    between atoms: _114  and  _115
REMARK   54  A    between atoms: _115  and  _116
REMARK   55  A    between atoms: _116  and  _117
REMARK   56  A    between atoms: _126  and  _128
REMARK   57  A    between atoms: _128  and  _129
REMARK   58  A    between atoms: _128  and  _131
REMARK   59  A    between atoms: _131  and  _132
REMARK   60  A    between atoms: _132  and  _133
REMARK   61  A    between atoms: _133  and  _134
REMARK   62  A    between atoms: _134  and  _135
REMARK   63  A    between atoms: _139  and  _141
REMARK   64  A    between atoms: _141  and  _142
REMARK   65  A    between atoms: _141  and  _144
REMARK   66  A    between atoms: _144  and  _145
REMARK   67  A    between atoms: _145  and  _146
REMARK   68  A    between atoms: _146  and  _148
REMARK   69  A    between atoms: _148  and  MG_262
REMARK   70  A    between atoms: _149  and  _151
REMARK   71  A    between atoms: _151  and  _152
REMARK   72  A    between atoms: _155  and  _157
REMARK   73  A    between atoms: _157  and  _158
REMARK   74  A    between atoms: _157  and  _160
REMARK   75  A    between atoms: _160  and  _161
REMARK   76  A    between atoms: _161  and  _162
REMARK   77  A    between atoms: _162  and  ZN_260
REMARK   78  A    between atoms: _164  and  _166
REMARK   79  A    between atoms: _166  and  _167
REMARK   80  A    between atoms: _166  and  _169
REMARK   81  A    between atoms: _169  and  _170
REMARK   82  A    between atoms: _170  and  _171
REMARK   83  A    between atoms: _171  and  _172
REMARK   84  A    between atoms: _172  and  _173
REMARK   85  A    between atoms: _177  and  _179
REMARK   86  A    between atoms: _179  and  _180
REMARK   87  A    between atoms: _179  and  _182
REMARK   88  A    between atoms: _182  and  _183
REMARK   89  A    between atoms: _187  and  ZN_260
REMARK   90  A    between atoms: _188  and  _190
REMARK   91  A    between atoms: _199  and  _200
REMARK   92  A    between atoms: _208  and  _210
REMARK   93  A    between atoms: _210  and  _211
REMARK   94  A    between atoms: _210  and  _213
REMARK   95  A    between atoms: _213  and  _214
REMARK   96  A    between atoms: _219  and  _221
REMARK   97  A    between atoms: _221  and  _222
REMARK   98  A    between atoms: _221  and  _224
REMARK   99  A    between atoms: _224  and  _225
REMARK  100  A    between atoms: _227  and  _229
REMARK  101  A    between atoms: _229  and  _230
REMARK  102  A    between atoms: _229  and  _232
REMARK  103  A    between atoms: _232  and  _233
REMARK  104  A    between atoms: _233  and  _234
REMARK  105  A    between atoms: _239  and  _241
REMARK  106  A    between atoms: _241  and  _242
REMARK  107  A    between atoms: _241  and  _244
REMARK  108  A    between atoms: _244  and  _245
REMARK  109  A    between atoms: _245  and  _246
REMARK  110  A    between atoms: _249  and  _251
REMARK  111  A    between atoms: _251  and  _252
REMARK  112  A    between atoms: _251  and  _254
REMARK  113  A    between atoms: _254  and  _255
REMARK  114  A    between atoms: _259  and  ZN_260
REMARK                            x       y       z     vdW  Elec       q    Type
REMARK                         _______ _______ _______ _____ _____    ______ ____
ROOT
ATOM      1  CA  ASN A   1      82.065  33.196  42.779  0.00  0.00    +0.154 C 
ENDROOT
BRANCH   1   2
ATOM      2  C   ASN A   1      82.696  34.138  43.809  0.00  0.00    +0.239 C 
ATOM      3  O   ASN A   1      83.427  33.710  44.701  0.00  0.00    -0.274 OA
ATOM      4  N   GLY A   2      82.415  35.429  43.682  0.00  0.00    -0.297 N 
ATOM      5  H   GLY A   2      81.798  35.734  42.903  0.00  0.00    +0.150 HD
BRANCH   4   6
ATOM      6  CA  GLY A   2      82.938  36.426  44.591  0.00  0.00    +0.163 C 
BRANCH   6   7
ATOM      7  C   GLY A   2      84.038  37.279  43.981  0.00  0.00    +0.229 C 
ATOM      8  O   GLY A   2      84.296  38.375  44.473  0.00  0.00    -0.286 OA
ENDBRANCH   6   7
ENDBRANCH   4   6
ENDBRANCH   1   2
BRANCH   1   9
ATOM      9  N   ASN A   1      83.094  32.329  42.186  0.00  0.00    -0.238 NA
ATOM     10  H   ASN A   1      83.027  31.295  42.276  0.00  0.00    +0.142 HD
ENDBRANCH   1   9
BRANCH   1  11
ATOM     11  CB  ASN A   1      81.002  32.330  43.478  0.00  0.00    +0.111 C 
BRANCH  11  12
ATOM     12  CG  ASN A   1      80.040  31.694  42.509  0.00  0.00    +0.221 C 
ATOM     13  ND2 ASN A   1      79.344  30.656  42.976  0.00  0.00    -0.329 N 
ATOM     14 HD21 ASN A   1      79.468  30.348  43.962  0.00  0.00    +0.145 HD
ATOM     15 HD22 ASN A   1      78.678  30.155  42.354  0.00  0.00    +0.145 HD
ATOM     16  OD1 ASN A   1      79.918  32.082  41.355  0.00  0.00    -0.275 OA
ENDBRANCH  11  12
ENDBRANCH   1  11
TORSDOF 6
REMARK  Name = ../refined-set-2016/1ew9/1ew9_pocket.pdb
REMARK  114 active torsions:
REMARK  status: ('A' for Active; 'I' for Inactive)
REMARK    1  A    between atoms: _1  and  _3
REMARK    2  A    between atoms: _3  and  _4
REMARK    3  A    between atoms: _3  and  _6
REMARK    4  A    between atoms: _6  and  _7
REMARK    5  A    between atoms: _7  and  _8
REMARK    6  A    between atoms: _7  and  _9
REMARK    7  A    between atoms: _8  and  ZN_261
REMARK    8  A    between atoms: _9  and  MG_262
REMARK    9  A    between atoms: _10  and  _12
REMARK   10  A    between atoms: _12  and  _13
REMARK   11  A    between atoms: _15  and  _17
REMARK   12  A    between atoms: _17  and  _18
REMARK   13  A    between atoms: _17  and  _20
REMARK   14  A    between atoms: _23  and  _25
REMARK   15  A    between atoms: _25  and  _26
REMARK   16  A    between atoms: _25  and  _28
REMARK   17  A    between atoms: _28  and  _29
REMARK   18  A    between atoms: _32  and  _34
REMARK   19  A    between atoms: _34  and  _35
REMARK   20  A    between atoms: _34  and  _37
REMARK   21  A    between atoms: _37  and  _38
REMARK   22  A    between atoms: _41  and  _43
REMARK   23  A    between atoms: _43  and  _44
REMARK   24  A    between atoms: _43  and  _46
REMARK   25  A    between atoms: _46  and  _47
REMARK   26  A    between atoms: _49  and  _51
REMARK   27  A    between atoms: _51  and  _52
REMARK   28  A    between atoms: _55  and  _57
REMARK   29  A    between atoms: _57  and  _58
REMARK   30  A    between atoms: _61  and  _63
REMARK   31  A    between atoms: _63  and  _64
REMARK   32  A    between atoms: _63  and  _66
REMARK   33  A    between atoms: _66  and  _67
REMARK   34  A    between atoms: _69  and  _71
REMARK   35  A    between atoms: _71  and  _72
REMARK   36  A    between atoms: _71  and  _74
REMARK   37  A    between atoms: _74  and  _75
REMARK   38  A    between atoms: _80  and  _82
REMARK   39  A    between atoms: _82  and  _83
REMARK   40  A    between atoms: _85  and  _87
REMARK   41  A    between atoms: _87  and  _88
REMARK   42  A    between atoms: _87  and  _90
REMARK   43  A    between atoms: _90  and  _91
REMARK   44  A    between atoms: _94  and  _96
REMARK   45  A    between atoms: _96  and  _97
REMARK   46  A    between atoms: _100  and  _102
REMARK   47  A    between atoms: _102  and  _103
REMARK   48  A    between atoms: _102  and  _105
REMARK   49  A    between atoms: _105  and  _106
REMARK   50  A    between atoms: _109  and  _111
REMARK   51  A    between atoms: _111  and  _112
REMARK   52  A    between atoms: _111  and  _114
REMARK   53  A    between atoms: _114  and  _115
REMARK   54  A    between atoms: _115  and  _116
REMARK   55  A    between atoms: _116  and  _117
REMARK   56  A    between atoms: _126  and  _128
REMARK   57  A    between atoms: _128  and  _129
REMARK   58  A    between atoms: _128  and  _131
REMARK   59  A    between atoms: _131  and  _132
REMARK   60  A    between atoms: _132  and  _133
REMARK   61  A    between atoms: _133  and  _134
REMARK   62  A    between atoms: _134  and  _135
REMARK   63  A    between atoms: _139  and  _141
REMARK   64  A    between atoms: _141  and  _142
REMARK   65  A    between atoms: _141  and  _144
REMARK   66  A    between atoms: _144  and  _145
REMARK   67  A    between atoms: _145  and  _146
REMARK   68  A    between atoms: _146  and  _148
REMARK   69  A    between atoms: _148  and  MG_262
REMARK   70  A    between atoms: _149  and  _151
REMARK   71  A    between atoms: _151  and  _152
REMARK   72  A    between atoms: _155  and  _157
REMARK   73  A    between atoms: _157  and  _158
REMARK   74  A    between atoms: _157  and  _160
REMARK   75  A    between atoms: _160  and  _161
REMARK   76  A    between atoms: _161  and  _162
REMARK   77  A    between atoms: _162  and  ZN_260
REMARK   78  A    between atoms: _164  and  _166
REMARK   79  A    between atoms: _166  and  _167
REMARK   80  A    between atoms: _166  and  _169
REMARK   81  A    between atoms: _169  and  _170
REMARK   82  A    between atoms: _170  and  _171
REMARK   83  A    between atoms: _171  and  _172
REMARK   84  A    between atoms: _172  and  _173
REMARK   85  A    between atoms: _177  and  _179
REMARK   86  A    between atoms: _179  and  _180
REMARK   87  A    between atoms: _179  and  _182
REMARK   88  A    between atoms: _182  and  _183
REMARK   89  A    between atoms: _187  and  ZN_260
REMARK   90  A    between atoms: _188  and  _190
REMARK   91  A    between atoms: _199  and  _200
REMARK   92  A    between atoms: _208  and  _210
REMARK   93  A    between atoms: _210  and  _211
REMARK   94  A    between atoms: _210  and  _213
REMARK   95  A    between atoms: _213  and  _214
REMARK   96  A    between atoms: _219  and  _221
REMARK   97  A    between atoms: _221  and  _222
REMARK   98  A    between atoms: _221  and  _224
REMARK   99  A    between atoms: _224  and  _225
REMARK  100  A    between atoms: _227  and  _229
REMARK  101  A    between atoms: _229  and  _230
REMARK  102  A    between atoms: _229  and  _232
REMARK  103  A    between atoms: _232  and  _233
REMARK  104  A    between atoms: _233  and  _234
REMARK  105  A    between atoms: _239  and  _241
REMARK  106  A    between atoms: _241  and  _242
REMARK  107  A    between atoms: _241  and  _244
REMARK  108  A    between atoms: _244  and  _245
REMARK  109  A    between atoms: _245  and  _246
REMARK  110  A    between atoms: _249  and  _251
REMARK  111  A    between atoms: _251  and  _252
REMARK  112  A    between atoms: _251  and  _254
REMARK  113  A    between atoms: _254  and  _255
REMARK  114  A    between atoms: _259  and  ZN_260
REMARK                            x       y       z     vdW  Elec       q    Type
REMARK                         _______ _______ _______ _____ _____    ______ ____
ROOT
ATOM      1  CA  ALA A   2      79.205  43.447  41.764  0.00  0.00    +0.149 C 
ATOM      2  CB  ALA A   2      78.762  42.004  41.983  0.00  0.00    +0.031 C 
ENDROOT
BRANCH   1   4
ATOM      3  C   ASP A   1      78.618  45.634  42.703  0.00  0.00    +0.239 C 
ATOM      4  N   ALA A   2      78.560  44.325  42.706  0.00  0.00    -0.297 N 
ATOM      5  H   ALA A   2      77.996  43.879  43.458  0.00  0.00    +0.150 HD
ATOM      6  O   ASP A   1      79.227  46.280  41.820  0.00  0.00    -0.274 OA
BRANCH   3   7
ATOM      7  CA  ASP A   1      77.987  46.361  43.888  0.00  0.00    +0.156 C 
BRANCH   7   8
ATOM      8  N   ASP A   1      78.627  47.636  44.143  0.00  0.00    -0.238 NA
ATOM      9  H   ASP A   1      78.028  48.486  44.155  0.00  0.00    +0.142 HD
ENDBRANCH   7   8
BRANCH   7  10
ATOM     10  CB  ASP A   1      76.480  46.523  43.717  0.00  0.00    +0.140 C 
BRANCH  10  11
ATOM     11  CG  ASP A   1      75.708  45.244  43.994  0.00  0.00    +0.367 C 
ATOM     12  OD2 ASP A   1      76.152  44.421  44.820  0.00  0.00    -0.246 OA
ATOM     13  OD1 ASP A   1      74.625  45.048  43.388  0.00  0.00    -0.246 OA
ENDBRANCH  10  11
ENDBRANCH   7  10
ENDBRANCH   3   7
ENDBRANCH   1   4
BRANCH   1  14
ATOM     14  C   ALA A   2      79.122  43.858  40.324  0.00  0.00    +0.241 C 
ATOM     15  N   THR A   3      77.926  44.110  39.820  0.00  0.00    -0.296 N 
ATOM     16  H   THR A   3      77.109  44.118  40.464  0.00  0.00    +0.150 HD
ATOM     17  O   ALA A   2      80.131  43.934  39.584  0.00  0.00    -0.273 OA
BRANCH  15  18
ATOM     18  CA  THR A   3      77.698  44.375  38.418  0.00  0.00    +0.164 C 
BRANCH  18  19
ATOM     19  CB  THR A   3      76.187  44.372  38.095  0.00  0.00    +0.136 C 
ATOM     20  CG2 THR A   3      75.966  44.200  36.610  0.00  0.00    +0.034 C 
BRANCH  19  21
ATOM     21  OG1 THR A   3      75.591  43.244  38.751  0.00  0.00    -0.382 OA
ATOM     22  HG1 THR A   3      76.012  42.411  38.420  0.00  0.00    +0.210 HD
ENDBRANCH  19  21
ENDBRANCH  18  19
BRANCH  18  23
ATOM     23  C   THR A   3      78.397  45.550  37.833  0.00  0.00    +0.229 C 
ATOM     24  O   THR A   3      79.104  45.483  36.816  0.00  0.00    -0.286 OA
ENDBRANCH  18  23
ENDBRANCH  15  18
ENDBRANCH   1  14
TORSDOF 10
REMARK  Name = ../refined-set-2016/1ew9/1ew9_pocket.pdb
REMARK  114 active torsions:
REMARK  status: ('A' for Active; 'I' for Inactive)
REMARK    1  A    between atoms: _1  and  _3
REMARK    2  A    between atoms: _3  and  _4
REMARK    3  A    between atoms: _3  and  _6
REMARK    4  A    between atoms: _6  and  _7
REMARK    5  A    between atoms: _7  and  _8
REMARK    6  A    between atoms: _7  and  _9
REMARK    7  A    between atoms: _8  and  ZN_261
REMARK    8  A    between atoms: _9  and  MG_262
REMARK    9  A    between atoms: _10  and  _12
REMARK   10  A    between atoms: _12  and  _13
REMARK   11  A    between atoms: _15  and  _17
REMARK   12  A    between atoms: _17  and  _18
REMARK   13  A    between atoms: _17  and  _20
REMARK   14  A    between atoms: _23  and  _25
REMARK   15  A    between atoms: _25  and  _26
REMARK   16  A    between atoms: _25  and  _28
REMARK   17  A    between atoms: _28  and  _29
REMARK   18  A    between atoms: _32  and  _34
REMARK   19  A    between atoms: _34  and  _35
REMARK   20  A    between atoms: _34  and  _37
REMARK   21  A    between atoms: _37  and  _38
REMARK   22  A    between atoms: _41  and  _43
REMARK   23  A    between atoms: _43  and  _44
REMARK   24  A    between atoms: _43  and  _46
REMARK   25  A    between atoms: _46  and  _47
REMARK   26  A    between atoms: _49  and  _51
REMARK   27  A    between atoms: _51  and  _52
REMARK   28  A    between atoms: _55  and  _57
REMARK   29  A    between atoms: _57  and  _58
REMARK   30  A    between atoms: _61  and  _63
REMARK   31  A    between atoms: _63  and  _64
REMARK   32  A    between atoms: _63  and  _66
REMARK   33  A    between atoms: _66  and  _67
REMARK   34  A    between atoms: _69  and  _71
REMARK   35  A    between atoms: _71  and  _72
REMARK   36  A    between atoms: _71  and  _74
REMARK   37  A    between atoms: _74  and  _75
REMARK   38  A    between atoms: _80  and  _82
REMARK   39  A    between atoms: _82  and  _83
REMARK   40  A    between atoms: _85  and  _87
REMARK   41  A    between atoms: _87  and  _88
REMARK   42  A    between atoms: _87  and  _90
REMARK   43  A    between atoms: _90  and  _91
REMARK   44  A    between atoms: _94  and  _96
REMARK   45  A    between atoms: _96  and  _97
REMARK   46  A    between atoms: _100  and  _102
REMARK   47  A    between atoms: _102  and  _103
REMARK   48  A    between atoms: _102  and  _105
REMARK   49  A    between atoms: _105  and  _106
REMARK   50  A    between atoms: _109  and  _111
REMARK   51  A    between atoms: _111  and  _112
REMARK   52  A    between atoms: _111  and  _114
REMARK   53  A    between atoms: _114  and  _115
REMARK   54  A    between atoms: _115  and  _116
REMARK   55  A    between atoms: _116  and  _117
REMARK   56  A    between atoms: _126  and  _128
REMARK   57  A    between atoms: _128  and  _129
REMARK   58  A    between atoms: _128  and  _131
REMARK   59  A    between atoms: _131  and  _132
REMARK   60  A    between atoms: _132  and  _133
REMARK   61  A    between atoms: _133  and  _134
REMARK   62  A    between atoms: _134  and  _135
REMARK   63  A    between atoms: _139  and  _141
REMARK   64  A    between atoms: _141  and  _142
REMARK   65  A    between atoms: _141  and  _144
REMARK   66  A    between atoms: _144  and  _145
REMARK   67  A    between atoms: _145  and  _146
REMARK   68  A    between atoms: _146  and  _148
REMARK   69  A    between atoms: _148  and  MG_262
REMARK   70  A    between atoms: _149  and  _151
REMARK   71  A    between atoms: _151  and  _152
REMARK   72  A    between atoms: _155  and  _157
REMARK   73  A    between atoms: _157  and  _158
REMARK   74  A    between atoms: _157  and  _160
REMARK   75  A    between atoms: _160  and  _161
REMARK   76  A    between atoms: _161  and  _162
REMARK   77  A    between atoms: _162  and  ZN_260
REMARK   78  A    between atoms: _164  and  _166
REMARK   79  A    between atoms: _166  and  _167
REMARK   80  A    between atoms: _166  and  _169
REMARK   81  A    between atoms: _169  and  _170
REMARK   82  A    between atoms: _170  and  _171
REMARK   83  A    between atoms: _171  and  _172
REMARK   84  A    between atoms: _172  and  _173
REMARK   85  A    between atoms: _177  and  _179
REMARK   86  A    between atoms: _179  and  _180
REMARK   87  A    between atoms: _179  and  _182
REMARK   88  A    between atoms: _182  and  _183
REMARK   89  A    between atoms: _187  and  ZN_260
REMARK   90  A    between atoms: _188  and  _190
REMARK   91  A    between atoms: _199  and  _200
REMARK   92  A    between atoms: _208  and  _210
REMARK   93  A    between atoms: _210  and  _211
REMARK   94  A    between atoms: _210  and  _213
REMARK   95  A    between atoms: _213  and  _214
REMARK   96  A    between atoms: _219  and  _221
REMARK   97  A    between atoms: _221  and  _222
REMARK   98  A    between atoms: _221  and  _224
REMARK   99  A    between atoms: _224  and  _225
REMARK  100  A    between atoms: _227  and  _229
REMARK  101  A    between atoms: _229  and  _230
REMARK  102  A    between atoms: _229  and  _232
REMARK  103  A    between atoms: _232  and  _233
REMARK  104  A    between atoms: _233  and  _234
REMARK  105  A    between atoms: _239  and  _241
REMARK  106  A    between atoms: _241  and  _242
REMARK  107  A    between atoms: _241  and  _244
REMARK  108  A    between atoms: _244  and  _245
REMARK  109  A    between atoms: _245  and  _246
REMARK  110  A    between atoms: _249  and  _251
REMARK  111  A    between atoms: _251  and  _252
REMARK  112  A    between atoms: _251  and  _254
REMARK  113  A    between atoms: _254  and  _255
REMARK  114  A    between atoms: _259  and  ZN_260
REMARK                            x       y       z     vdW  Elec       q    Type
REMARK                         _______ _______ _______ _____ _____    ______ ____
ROOT
ATOM      1  CA  ARG A   1      83.295  41.528  45.917  0.00  0.00    +0.145 C 
ENDROOT
BRANCH   1   2
ATOM      2  C   ARG A   1      82.925  42.389  47.112  0.00  0.00    +0.238 C 
ATOM      3  N   LYS A   2      83.291  41.950  48.298  0.00  0.00    -0.298 N 
ATOM      4  H   LYS A   2      83.825  41.059  48.348  0.00  0.00    +0.150 HD
ATOM      5  O   ARG A   1      82.298  43.449  46.974  0.00  0.00    -0.274 OA
BRANCH   3   6
ATOM      6  CA  LYS A   2      82.994  42.632  49.529  0.00  0.00    +0.137 C 
BRANCH   6   7
ATOM      7  C   LYS A   2      83.915  43.814  49.818  0.00  0.00    +0.227 C 
ATOM      8  O   LYS A   2      83.650  44.533  50.780  0.00  0.00    -0.286 OA
ENDBRANCH   6   7
BRANCH   6   9
ATOM      9  CB  LYS A   2      83.103  41.642  50.703  0.00  0.00    +0.028 C 
BRANCH   9  10
ATOM     10  CG  LYS A   2      82.462  40.296  50.391  0.00  0.00    -0.000 C 
BRANCH  10  11
ATOM     11  CD  LYS A   2      81.283  40.013  51.304  0.00  0.00    -0.024 C 
BRANCH  11  12
ATOM     12  CE  LYS A   2      81.372  38.647  51.971  0.00  0.00    -0.086 C 
BRANCH  12  13
ATOM     13  NZ  LYS A   2      80.073  37.889  51.862  0.00  0.00    +0.380 N 
ATOM     14  HZ1 LYS A   2      80.173  36.964  52.327  0.00  0.00    -0.089 HD
ATOM     15  HZ2 LYS A   2      79.316  38.432  52.325  0.00  0.00    -0.089 HD
ATOM     16  HZ3 LYS A   2      79.837  37.750  50.859  0.00  0.00    -0.089 HD
ENDBRANCH  12  13
ENDBRANCH  11  12
ENDBRANCH  10  11
ENDBRANCH   9  10
ENDBRANCH   6   9
ENDBRANCH   3   6
ENDBRANCH   1   2
BRANCH   1  17
ATOM     17  N   ARG A   1      84.293  40.528  46.209  0.00  0.00    -0.238 NA
ATOM     18  H   ARG A   1      84.039  39.529  46.073  0.00  0.00    +0.142 HD
ENDBRANCH   1  17
BRANCH   1  19
ATOM     19  CB  ARG A   1      82.027  40.888  45.325  0.00  0.00    +0.030 C 
BRANCH  19  20
ATOM     20  CG  ARG A   1      81.158  40.186  46.361  0.00  0.00    +0.045 C 
BRANCH  20  21
ATOM     21  CD  ARG A   1      80.045  39.401  45.729  0.00  0.00    +0.174 C 
BRANCH  21  22
ATOM     22  NE  ARG A   1      78.818  40.163  45.547  0.00  0.00    -0.265 N 
ATOM     23  HE  ARG A   1      78.691  41.012  46.134  0.00  0.00    +0.259 HD
ATOM     24  CZ  ARG A   1      77.844  39.860  44.689  0.00  0.00    +0.342 C 
ATOM     25  NH2 ARG A   1      76.983  40.798  44.311  0.00  0.00    -0.292 N 
ATOM     26 HH21 ARG A   1      77.070  41.765  44.684  0.00  0.00    +0.255 HD
ATOM     27 HH22 ARG A   1      76.222  40.566  43.642  0.00  0.00    +0.255 HD
ATOM     28  NH1 ARG A   1      77.732  38.634  44.182  0.00  0.00    -0.292 N 
ATOM     29 HH11 ARG A   1      78.411  37.895  44.454  0.00  0.00    +0.255 HD
ATOM     30 HH12 ARG A   1      76.966  38.416  43.514  0.00  0.00    +0.255 HD
ENDBRANCH  21  22
ENDBRANCH  20  21
ENDBRANCH  19  20
ENDBRANCH   1  19
TORSDOF 13
REMARK  Name = ../refined-set-2016/1ew9/1ew9_pocket.pdb
REMARK  114 active torsions:
REMARK  status: ('A' for Active; 'I' for Inactive)
REMARK    1  A    between atoms: _1  and  _3
REMARK    2  A    between atoms: _3  and  _4
REMARK    3  A    between atoms: _3  and  _6
REMARK    4  A    between atoms: _6  and  _7
REMARK    5  A    between atoms: _7  and  _8
REMARK    6  A    between atoms: _7  and  _9
REMARK    7  A    between atoms: _8  and  ZN_261
REMARK    8  A    between atoms: _9  and  MG_262
REMARK    9  A    between atoms: _10  and  _12
REMARK   10  A    between atoms: _12  and  _13
REMARK   11  A    between atoms: _15  and  _17
REMARK   12  A    between atoms: _17  and  _18
REMARK   13  A    between atoms: _17  and  _20
REMARK   14  A    between atoms: _23  and  _25
REMARK   15  A    between atoms: _25  and  _26
REMARK   16  A    between atoms: _25  and  _28
REMARK   17  A    between atoms: _28  and  _29
REMARK   18  A    between atoms: _32  and  _34
REMARK   19  A    between atoms: _34  and  _35
REMARK   20  A    between atoms: _34  and  _37
REMARK   21  A    between atoms: _37  and  _38
REMARK   22  A    between atoms: _41  and  _43
REMARK   23  A    between atoms: _43  and  _44
REMARK   24  A    between atoms: _43  and  _46
REMARK   25  A    between atoms: _46  and  _47
REMARK   26  A    between atoms: _49  and  _51
REMARK   27  A    between atoms: _51  and  _52
REMARK   28  A    between atoms: _55  and  _57
REMARK   29  A    between atoms: _57  and  _58
REMARK   30  A    between atoms: _61  and  _63
REMARK   31  A    between atoms: _63  and  _64
REMARK   32  A    between atoms: _63  and  _66
REMARK   33  A    between atoms: _66  and  _67
REMARK   34  A    between atoms: _69  and  _71
REMARK   35  A    between atoms: _71  and  _72
REMARK   36  A    between atoms: _71  and  _74
REMARK   37  A    between atoms: _74  and  _75
REMARK   38  A    between atoms: _80  and  _82
REMARK   39  A    between atoms: _82  and  _83
REMARK   40  A    between atoms: _85  and  _87
REMARK   41  A    between atoms: _87  and  _88
REMARK   42  A    between atoms: _87  and  _90
REMARK   43  A    between atoms: _90  and  _91
REMARK   44  A    between atoms: _94  and  _96
REMARK   45  A    between atoms: _96  and  _97
REMARK   46  A    between atoms: _100  and  _102
REMARK   47  A    between atoms: _102  and  _103
REMARK   48  A    between atoms: _102  and  _105
REMARK   49  A    between atoms: _105  and  _106
REMARK   50  A    between atoms: _109  and  _111
REMARK   51  A    between atoms: _111  and  _112
REMARK   52  A    between atoms: _111  and  _114
REMARK   53  A    between atoms: _114  and  _115
REMARK   54  A    between atoms: _115  and  _116
REMARK   55  A    between atoms: _116  and  _117
REMARK   56  A    between atoms: _126  and  _128
REMARK   57  A    between atoms: _128  and  _129
REMARK   58  A    between atoms: _128  and  _131
REMARK   59  A    between atoms: _131  and  _132
REMARK   60  A    between atoms: _132  and  _133
REMARK   61  A    between atoms: _133  and  _134
REMARK   62  A    between atoms: _134  and  _135
REMARK   63  A    between atoms: _139  and  _141
REMARK   64  A    between atoms: _141  and  _142
REMARK   65  A    between atoms: _141  and  _144
REMARK   66  A    between atoms: _144  and  _145
REMARK   67  A    between atoms: _145  and  _146
REMARK   68  A    between atoms: _146  and  _148
REMARK   69  A    between atoms: _148  and  MG_262
REMARK   70  A    between atoms: _149  and  _151
REMARK   71  A    between atoms: _151  and  _152
REMARK   72  A    between atoms: _155  and  _157
REMARK   73  A    between atoms: _157  and  _158
REMARK   74  A    between atoms: _157  and  _160
REMARK   75  A    between atoms: _160  and  _161
REMARK   76  A    between atoms: _161  and  _162
REMARK   77  A    between atoms: _162  and  ZN_260
REMARK   78  A    between atoms: _164  and  _166
REMARK   79  A    between atoms: _166  and  _167
REMARK   80  A    between atoms: _166  and  _169
REMARK   81  A    between atoms: _169  and  _170
REMARK   82  A    between atoms: _170  and  _171
REMARK   83  A    between atoms: _171  and  _172
REMARK   84  A    between atoms: _172  and  _173
REMARK   85  A    between atoms: _177  and  _179
REMARK   86  A    between atoms: _179  and  _180
REMARK   87  A    between atoms: _179  and  _182
REMARK   88  A    between atoms: _182  and  _183
REMARK   89  A    between atoms: _187  and  ZN_260
REMARK   90  A    between atoms: _188  and  _190
REMARK   91  A    between atoms: _199  and  _200
REMARK   92  A    between atoms: _208  and  _210
REMARK   93  A    between atoms: _210  and  _211
REMARK   94  A    between atoms: _210  and  _213
REMARK   95  A    between atoms: _213  and  _214
REMARK   96  A    between atoms: _219  and  _221
REMARK   97  A    between atoms: _221  and  _222
REMARK   98  A    between atoms: _221  and  _224
REMARK   99  A    between atoms: _224  and  _225
REMARK  100  A    between atoms: _227  and  _229
REMARK  101  A    between atoms: _229  and  _230
REMARK  102  A    between atoms: _229  and  _232
REMARK  103  A    between atoms: _232  and  _233
REMARK  104  A    between atoms: _233  and  _234
REMARK  105  A    between atoms: _239  and  _241
REMARK  106  A    between atoms: _241  and  _242
REMARK  107  A    between atoms: _241  and  _244
REMARK  108  A    between atoms: _244  and  _245
REMARK  109  A    between atoms: _245  and  _246
REMARK  110  A    between atoms: _249  and  _251
REMARK  111  A    between atoms: _251  and  _252
REMARK  112  A    between atoms: _251  and  _254
REMARK  113  A    between atoms: _254  and  _255
REMARK  114  A    between atoms: _259  and  ZN_260
REMARK                            x       y       z     vdW  Elec       q    Type
REMARK                         _______ _______ _______ _____ _____    ______ ____
ROOT
ATOM      1  CA  ALA A   1      69.996  46.116  39.700  0.00  0.00    +0.133 C 
ATOM      2  CB  ALA A   1      71.068  46.877  40.453  0.00  0.00    +0.027 C 
ENDROOT
BRANCH   1   3
ATOM      3  N   ALA A   1      69.424  46.824  38.630  0.00  0.00    -0.239 NA
ATOM      4  H   ALA A   1      69.529  47.859  38.640  0.00  0.00    +0.142 HD
ENDBRANCH   1   3
BRANCH   1   5
ATOM      5  C   ALA A   1      69.062  45.397  40.643  0.00  0.00    +0.224 C 
ATOM      6  O   ALA A   1      69.445  44.336  41.150  0.00  0.00    -0.287 OA
ENDBRANCH   1   5
TORSDOF 2
REMARK  Name = ../refined-set-2016/1ew9/1ew9_pocket.pdb
REMARK  114 active torsions:
REMARK  status: ('A' for Active; 'I' for Inactive)
REMARK    1  A    between atoms: _1  and  _3
REMARK    2  A    between atoms: _3  and  _4
REMARK    3  A    between atoms: _3  and  _6
REMARK    4  A    between atoms: _6  and  _7
REMARK    5  A    between atoms: _7  and  _8
REMARK    6  A    between atoms: _7  and  _9
REMARK    7  A    between atoms: _8  and  ZN_261
REMARK    8  A    between atoms: _9  and  MG_262
REMARK    9  A    between atoms: _10  and  _12
REMARK   10  A    between atoms: _12  and  _13
REMARK   11  A    between atoms: _15  and  _17
REMARK   12  A    between atoms: _17  and  _18
REMARK   13  A    between atoms: _17  and  _20
REMARK   14  A    between atoms: _23  and  _25
REMARK   15  A    between atoms: _25  and  _26
REMARK   16  A    between atoms: _25  and  _28
REMARK   17  A    between atoms: _28  and  _29
REMARK   18  A    between atoms: _32  and  _34
REMARK   19  A    between atoms: _34  and  _35
REMARK   20  A    between atoms: _34  and  _37
REMARK   21  A    between atoms: _37  and  _38
REMARK   22  A    between atoms: _41  and  _43
REMARK   23  A    between atoms: _43  and  _44
REMARK   24  A    between atoms: _43  and  _46
REMARK   25  A    between atoms: _46  and  _47
REMARK   26  A    between atoms: _49  and  _51
REMARK   27  A    between atoms: _51  and  _52
REMARK   28  A    between atoms: _55  and  _57
REMARK   29  A    between atoms: _57  and  _58
REMARK   30  A    between atoms: _61  and  _63
REMARK   31  A    between atoms: _63  and  _64
REMARK   32  A    between atoms: _63  and  _66
REMARK   33  A    between atoms: _66  and  _67
REMARK   34  A    between atoms: _69  and  _71
REMARK   35  A    between atoms: _71  and  _72
REMARK   36  A    between atoms: _71  and  _74
REMARK   37  A    between atoms: _74  and  _75
REMARK   38  A    between atoms: _80  and  _82
REMARK   39  A    between atoms: _82  and  _83
REMARK   40  A    between atoms: _85  and  _87
REMARK   41  A    between atoms: _87  and  _88
REMARK   42  A    between atoms: _87  and  _90
REMARK   43  A    between atoms: _90  and  _91
REMARK   44  A    between atoms: _94  and  _96
REMARK   45  A    between atoms: _96  and  _97
REMARK   46  A    between atoms: _100  and  _102
REMARK   47  A    between atoms: _102  and  _103
REMARK   48  A    between atoms: _102  and  _105
REMARK   49  A    between atoms: _105  and  _106
REMARK   50  A    between atoms: _109  and  _111
REMARK   51  A    between atoms: _111  and  _112
REMARK   52  A    between atoms: _111  and  _114
REMARK   53  A    between atoms: _114  and  _115
REMARK   54  A    between atoms: _115  and  _116
REMARK   55  A    between atoms: _116  and  _117
REMARK   56  A    between atoms: _126  and  _128
REMARK   57  A    between atoms: _128  and  _129
REMARK   58  A    between atoms: _128  and  _131
REMARK   59  A    between atoms: _131  and  _132
REMARK   60  A    between atoms: _132  and  _133
REMARK   61  A    between atoms: _133  and  _134
REMARK   62  A    between atoms: _134  and  _135
REMARK   63  A    between atoms: _139  and  _141
REMARK   64  A    between atoms: _141  and  _142
REMARK   65  A    between atoms: _141  and  _144
REMARK   66  A    between atoms: _144  and  _145
REMARK   67  A    between atoms: _145  and  _146
REMARK   68  A    between atoms: _146  and  _148
REMARK   69  A    between atoms: _148  and  MG_262
REMARK   70  A    between atoms: _149  and  _151
REMARK   71  A    between atoms: _151  and  _152
REMARK   72  A    between atoms: _155  and  _157
REMARK   73  A    between atoms: _157  and  _158
REMARK   74  A    between atoms: _157  and  _160
REMARK   75  A    between atoms: _160  and  _161
REMARK   76  A    between atoms: _161  and  _162
REMARK   77  A    between atoms: _162  and  ZN_260
REMARK   78  A    between atoms: _164  and  _166
REMARK   79  A    between atoms: _166  and  _167
REMARK   80  A    between atoms: _166  and  _169
REMARK   81  A    between atoms: _169  and  _170
REMARK   82  A    between atoms: _170  and  _171
REMARK   83  A    between atoms: _171  and  _172
REMARK   84  A    between atoms: _172  and  _173
REMARK   85  A    between atoms: _177  and  _179
REMARK   86  A    between atoms: _179  and  _180
REMARK   87  A    between atoms: _179  and  _182
REMARK   88  A    between atoms: _182  and  _183
REMARK   89  A    between atoms: _187  and  ZN_260
REMARK   90  A    between atoms: _188  and  _190
REMARK   91  A    between atoms: _199  and  _200
REMARK   92  A    between atoms: _208  and  _210
REMARK   93  A    between atoms: _210  and  _211
REMARK   94  A    between atoms: _210  and  _213
REMARK   95  A    between atoms: _213  and  _214
REMARK   96  A    between atoms: _219  and  _221
REMARK   97  A    between atoms: _221  and  _222
REMARK   98  A    between atoms: _221  and  _224
REMARK   99  A    between atoms: _224  and  _225
REMARK  100  A    between atoms: _227  and  _229
REMARK  101  A    between atoms: _229  and  _230
REMARK  102  A    between atoms: _229  and  _232
REMARK  103  A    between atoms: _232  and  _233
REMARK  104  A    between atoms: _233  and  _234
REMARK  105  A    between atoms: _239  and  _241
REMARK  106  A    between atoms: _241  and  _242
REMARK  107  A    between atoms: _241  and  _244
REMARK  108  A    between atoms: _244  and  _245
REMARK  109  A    between atoms: _245  and  _246
REMARK  110  A    between atoms: _249  and  _251
REMARK  111  A    between atoms: _251  and  _252
REMARK  112  A    between atoms: _251  and  _254
REMARK  113  A    between atoms: _254  and  _255
REMARK  114  A    between atoms: _259  and  ZN_260
REMARK                            x       y       z     vdW  Elec       q    Type
REMARK                         _______ _______ _______ _____ _____    ______ ____
ROOT
ATOM      1  N   UNK A   1      72.025  36.194  42.835  0.00  0.00    +0.000 N 
ATOM      2  C   UNK A   1      71.167  35.113  42.727  0.00  0.00    +0.000 A 
ATOM      3  C   UNK A   1      71.860  34.095  42.178  0.00  0.00    +0.000 A 
ATOM      4  N   UNK A   1      73.150  34.557  42.010  0.00  0.00    +0.000 NA
ATOM      5  C   UNK A   1      73.214  35.816  42.402  0.00  0.00    +0.000 A 
ENDROOT
BRANCH   3   6
ATOM      6  C   UNK A   1      71.468  32.695  41.844  0.00  0.00    +0.000 C 
BRANCH   6   7
ATOM      7  C   UNK A   1      70.054  32.281  42.252  0.00  0.00    +0.000 C 
BRANCH   7   8
ATOM      8  N   UNK A   1      69.851  32.277  43.671  0.00  0.00    +0.000 N 
ATOM      9  H   UNK A   1      70.657  32.516  44.284  0.00  0.00    +0.000 HD
ATOM     10  C   GLU A   3      68.677  31.982  44.252  0.00  0.00    +0.000 C 
ATOM     11  O   GLU A   3      67.670  31.713  43.616  0.00  0.00    +0.000 OA
BRANCH  10  12
ATOM     12  CA  GLU A   3      68.741  31.829  45.752  0.00  0.00    +0.000 C 
BRANCH  12  13
ATOM     13  N   GLU A   3      67.605  32.160  46.522  0.00  0.00    +0.000 N 
ATOM     14  C   GLN A   2      67.289  33.263  47.114  0.00  0.00    +0.000 C 
ATOM     15  O   GLN A   2      67.868  34.345  46.974  0.00  0.00    +0.000 OA
ATOM     16  H   GLU A   3      66.912  31.392  46.630  0.00  0.00    +0.000 HD
BRANCH  14  17
ATOM     17  CA  GLN A   2      66.078  33.202  48.079  0.00  0.00    +0.000 C 
BRANCH  17  18
ATOM     18  N   GLN A   2      66.306  34.232  49.125  0.00  0.00    +0.000 N 
ATOM     19  C   UNK A   1      67.151  33.962  50.120  0.00  0.00    +0.000 C 
ATOM     20  O   UNK A   1      67.741  32.889  50.248  0.00  0.00    +0.000 OA
ATOM     21  H   GLN A   2      65.815  35.148  49.082  0.00  0.00    +0.000 HD
BRANCH  19  22
ATOM     22  C   UNK A   1      67.436  35.114  51.083  0.00  0.00    +0.000 C 
BRANCH  22  23
ATOM     23  N   UNK A   1      67.305  34.684  52.468  0.00  0.00    +0.000 NA
ATOM     24  H   UNK A   1      67.968  33.984  52.858  0.00  0.00    +0.000 HD
ENDBRANCH  22  23
BRANCH  22  25
ATOM     25  C   UNK A   1      68.891  35.588  50.855  0.00  0.00    +0.000 C 
BRANCH  25  26
ATOM     26  O   UNK A   1      69.070  36.050  49.535  0.00  0.00    +0.000 OA
ATOM     27  H   UNK A   1      68.871  35.317  48.900  0.00  0.00    +0.000 HD
ENDBRANCH  25  26
ENDBRANCH  22  25
ENDBRANCH  19  22
ENDBRANCH  17  18
BRANCH  17  28
ATOM     28  CB  GLN A   2      64.804  33.558  47.304  0.00  0.00    +0.000 C 
BRANCH  28  29
ATOM     29  CG  GLN A   2      63.562  33.514  48.191  0.00  0.00    +0.000 C 
BRANCH  29  30
ATOM     30  CD  GLN A   2      63.343  32.096  48.713  0.00  0.00    +0.000 C 
ATOM     31  NE2 GLN A   2      63.394  31.976  50.029  0.00  0.00    +0.000 N 
ATOM     32 HE21 GLN A   2      63.510  32.821  50.624  0.00  0.00    +0.000 HD
ATOM     33 HE22 GLN A   2      63.318  31.037  50.469  0.00  0.00    +0.000 HD
ATOM     34  OE1 GLN A   2      63.209  31.170  47.915  0.00  0.00    +0.000 OA
ENDBRANCH  29  30
ENDBRANCH  28  29
ENDBRANCH  17  28
ENDBRANCH  14  17
ENDBRANCH  12  13
BRANCH  12  35
ATOM     35  CB  GLU A   3      69.092  30.308  46.017  0.00  0.00    +0.000 C 
BRANCH  35  36
ATOM     36  CG  GLU A   3      69.202  29.988  47.485  0.00  0.00    +0.000 C 
BRANCH  36  37
ATOM     37  CD  GLU A   3      70.646  29.769  47.923  0.00  0.00    +0.000 C 
ATOM     38  OE2 GLU A   3      70.899  29.801  49.146  0.00  0.00    +0.000 OA
ATOM     39  OE1 GLU A   3      71.501  29.549  47.039  0.00  0.00    +0.000 OA
ENDBRANCH  36  37
ENDBRANCH  35  36
ENDBRANCH  12  35
ENDBRANCH  10  12
ENDBRANCH   7   8
BRANCH   7  40
ATOM     40  C   UNK A   1      69.847  30.841  41.723  0.00  0.00    +0.000 C 
ATOM     41  O   ACE A   4      70.006  29.880  42.472  0.00  0.00    +0.000 OA
ENDBRANCH   7  40
ENDBRANCH   6   7
ENDBRANCH   3   6
BRANCH   1  42
ATOM     42 ZN   UNK A   1      71.656  37.906  43.548  0.00  0.00    +0.000 Zn
BRANCH  42  43
ATOM     43  N   UNK A   1      70.379  37.559  45.097  0.00  0.00    +0.000 N 
ATOM     44  C   UNK A   1      69.438  38.415  45.618  0.00  0.00    +0.000 A 
ATOM     45  C   UNK A   1      68.638  37.679  46.440  0.00  0.00    +0.000 A 
ATOM     46  N   UNK A   1      69.144  36.383  46.438  0.00  0.00    +0.000 NA
ATOM     47  C   UNK A   1      70.170  36.338  45.611  0.00  0.00    +0.000 A 
BRANCH  45  48
ATOM     48  C   UNK A   1      67.477  38.084  47.281  0.00  0.00    +0.000 C 
BRANCH  48  49
ATOM     49  C   UNK A   1      66.148  37.351  46.907  0.00  0.00    +0.000 C 
BRANCH  49  50
ATOM     50  N   UNK A   1      65.620  38.015  45.677  0.00  0.00    +0.000 NA
ATOM     51  H   UNK A   1      66.172  38.753  45.195  0.00  0.00    +0.000 HD
ENDBRANCH  49  50
BRANCH  49  52
ATOM     52  C   UNK A   1      65.176  37.597  48.066  0.00  0.00    +0.000 C 
ATOM     53  O   UNK A   1      64.947  36.730  48.904  0.00  0.00    +0.000 OA
ENDBRANCH  49  52
ENDBRANCH  48  49
ENDBRANCH  45  48
ENDBRANCH  42  43
BRANCH  42  54
ATOM     54  O   UNK A   1      70.253  38.252  42.018  0.00  0.00    +0.000 OA
BRANCH  54  55
ATOM     55  C   UNK A   1      70.021  39.449  42.279  0.00  0.00    +0.000 C 
ATOM     56  O   UNK A   1      70.520  40.014  43.289  0.00  0.00    +0.000 OA
BRANCH  55  57
ATOM     57  C   UNK A   1      69.176  40.255  41.350  0.00  0.00    +0.000 C 
BRANCH  57  58
ATOM     58  C   UNK A   1      67.685  40.344  41.701  0.00  0.00    +0.000 C 
BRANCH  58  59
ATOM     59  C   UNK A   1      67.449  40.544  43.160  0.00  0.00    +0.000 C 
ATOM     60  O   UNK A   1      67.061  39.651  43.912  0.00  0.00    +0.000 OA
ATOM     61  N   GLN A   2      67.689  41.778  43.653  0.00  0.00    +0.000 N 
ATOM     62  H   GLN A   2      67.940  42.555  43.009  0.00  0.00    +0.000 HD
BRANCH  61  63
ATOM     63  CA  GLN A   2      67.597  42.021  45.074  0.00  0.00    +0.000 C 
BRANCH  63  64
ATOM     64  C   GLN A   2      66.206  41.763  45.637  0.00  0.00    +0.000 C 
ATOM     65  O   GLN A   2      66.073  41.232  46.743  0.00  0.00    +0.000 OA
ENDBRANCH  63  64
BRANCH  63  66
ATOM     66  CB  GLN A   2      68.023  43.460  45.387  0.00  0.00    +0.000 C 
BRANCH  66  67
ATOM     67  CG  GLN A   2      69.446  43.780  44.961  0.00  0.00    +0.000 C 
BRANCH  67  68
ATOM     68  CD  GLN A   2      69.901  45.154  45.368  0.00  0.00    +0.000 C 
BRANCH  68  69
ATOM     69  CE  GLN A   2      71.244  45.513  44.702  0.00  0.00    +0.000 C 
BRANCH  69  70
ATOM     70  NZ  GLN A   2      72.320  44.624  45.186  0.00  0.00    +0.000 N 
ATOM     71  HZ1 GLN A   2      72.416  44.728  46.216  0.00  0.00    +0.000 HD
ATOM     72  HZ2 GLN A   2      72.083  43.638  44.956  0.00  0.00    +0.000 HD
ATOM     73  HZ3 GLN A   2      73.216  44.883  44.725  0.00  0.00    +0.000 HD
ENDBRANCH  69  70
ENDBRANCH  68  69
ENDBRANCH  67  68
ENDBRANCH  66  67
ENDBRANCH  63  66
ENDBRANCH  61  63
ENDBRANCH  58  59
BRANCH  58  74
ATOM     74  N   UNK A   1      67.089  41.422  40.885  0.00  0.00    +0.000 NA
ATOM     75  H   UNK A   1      67.686  41.986  40.247  0.00  0.00    +0.000 HD
ENDBRANCH  58  74
ENDBRANCH  57  58
ENDBRANCH  55  57
ENDBRANCH  54  55
ENDBRANCH  42  54
ENDBRANCH   1  42
TORSDOF 37
REMARK  Name = ../refined-set-2016/1ew9/1ew9_pocket.pdb
REMARK  114 active torsions:
REMARK  status: ('A' for Active; 'I' for Inactive)
REMARK    1  A    between atoms: _1  and  _3
REMARK    2  A    between atoms: _3  and  _4
REMARK    3  A    between atoms: _3  and  _6
REMARK    4  A    between atoms: _6  and  _7
REMARK    5  A    between atoms: _7  and  _8
REMARK    6  A    between atoms: _7  and  _9
REMARK    7  A    between atoms: _8  and  ZN_261
REMARK    8  A    between atoms: _9  and  MG_262
REMARK    9  A    between atoms: _10  and  _12
REMARK   10  A    between atoms: _12  and  _13
REMARK   11  A    between atoms: _15  and  _17
REMARK   12  A    between atoms: _17  and  _18
REMARK   13  A    between atoms: _17  and  _20
REMARK   14  A    between atoms: _23  and  _25
REMARK   15  A    between atoms: _25  and  _26
REMARK   16  A    between atoms: _25  and  _28
REMARK   17  A    between atoms: _28  and  _29
REMARK   18  A    between atoms: _32  and  _34
REMARK   19  A    between atoms: _34  and  _35
REMARK   20  A    between atoms: _34  and  _37
REMARK   21  A    between atoms: _37  and  _38
REMARK   22  A    between atoms: _41  and  _43
REMARK   23  A    between atoms: _43  and  _44
REMARK   24  A    between atoms: _43  and  _46
REMARK   25  A    between atoms: _46  and  _47
REMARK   26  A    between atoms: _49  and  _51
REMARK   27  A    between atoms: _51  and  _52
REMARK   28  A    between atoms: _55  and  _57
REMARK   29  A    between atoms: _57  and  _58
REMARK   30  A    between atoms: _61  and  _63
REMARK   31  A    between atoms: _63  and  _64
REMARK   32  A    between atoms: _63  and  _66
REMARK   33  A    between atoms: _66  and  _67
REMARK   34  A    between atoms: _69  and  _71
REMARK   35  A    between atoms: _71  and  _72
REMARK   36  A    between atoms: _71  and  _74
REMARK   37  A    between atoms: _74  and  _75
REMARK   38  A    between atoms: _80  and  _82
REMARK   39  A    between atoms: _82  and  _83
REMARK   40  A    between atoms: _85  and  _87
REMARK   41  A    between atoms: _87  and  _88
REMARK   42  A    between atoms: _87  and  _90
REMARK   43  A    between atoms: _90  and  _91
REMARK   44  A    between atoms: _94  and  _96
REMARK   45  A    between atoms: _96  and  _97
REMARK   46  A    between atoms: _100  and  _102
REMARK   47  A    between atoms: _102  and  _103
REMARK   48  A    between atoms: _102  and  _105
REMARK   49  A    between atoms: _105  and  _106
REMARK   50  A    between atoms: _109  and  _111
REMARK   51  A    between atoms: _111  and  _112
REMARK   52  A    between atoms: _111  and  _114
REMARK   53  A    between atoms: _114  and  _115
REMARK   54  A    between atoms: _115  and  _116
REMARK   55  A    between atoms: _116  and  _117
REMARK   56  A    between atoms: _126  and  _128
REMARK   57  A    between atoms: _128  and  _129
REMARK   58  A    between atoms: _128  and  _131
REMARK   59  A    between atoms: _131  and  _132
REMARK   60  A    between atoms: _132  and  _133
REMARK   61  A    between atoms: _133  and  _134
REMARK   62  A    between atoms: _134  and  _135
REMARK   63  A    between atoms: _139  and  _141
REMARK   64  A    between atoms: _141  and  _142
REMARK   65  A    between atoms: _141  and  _144
REMARK   66  A    between atoms: _144  and  _145
REMARK   67  A    between atoms: _145  and  _146
REMARK   68  A    between atoms: _146  and  _148
REMARK   69  A    between atoms: _148  and  MG_262
REMARK   70  A    between atoms: _149  and  _151
REMARK   71  A    between atoms: _151  and  _152
REMARK   72  A    between atoms: _155  and  _157
REMARK   73  A    between atoms: _157  and  _158
REMARK   74  A    between atoms: _157  and  _160
REMARK   75  A    between atoms: _160  and  _161
REMARK   76  A    between atoms: _161  and  _162
REMARK   77  A    between atoms: _162  and  ZN_260
REMARK   78  A    between atoms: _164  and  _166
REMARK   79  A    between atoms: _166  and  _167
REMARK   80  A    between atoms: _166  and  _169
REMARK   81  A    between atoms: _169  and  _170
REMARK   82  A    between atoms: _170  and  _171
REMARK   83  A    between atoms: _171  and  _172
REMARK   84  A    between atoms: _172  and  _173
REMARK   85  A    between atoms: _177  and  _179
REMARK   86  A    between atoms: _179  and  _180
REMARK   87  A    between atoms: _179  and  _182
REMARK   88  A    between atoms: _182  and  _183
REMARK   89  A    between atoms: _187  and  ZN_260
REMARK   90  A    between atoms: _188  and  _190
REMARK   91  A    between atoms: _199  and  _200
REMARK   92  A    between atoms: _208  and  _210
REMARK   93  A    between atoms: _210  and  _211
REMARK   94  A    between atoms: _210  and  _213
REMARK   95  A    between atoms: _213  and  _214
REMARK   96  A    between atoms: _219  and  _221
REMARK   97  A    between atoms: _221  and  _222
REMARK   98  A    between atoms: _221  and  _224
REMARK   99  A    between atoms: _224  and  _225
REMARK  100  A    between atoms: _227  and  _229
REMARK  101  A    between atoms: _229  and  _230
REMARK  102  A    between atoms: _229  and  _232
REMARK  103  A    between atoms: _232  and  _233
REMARK  104  A    between atoms: _233  and  _234
REMARK  105  A    between atoms: _239  and  _241
REMARK  106  A    between atoms: _241  and  _242
REMARK  107  A    between atoms: _241  and  _244
REMARK  108  A    between atoms: _244  and  _245
REMARK  109  A    between atoms: _245  and  _246
REMARK  110  A    between atoms: _249  and  _251
REMARK  111  A    between atoms: _251  and  _252
REMARK  112  A    between atoms: _251  and  _254
REMARK  113  A    between atoms: _254  and  _255
REMARK  114  A    between atoms: _259  and  ZN_260
REMARK                            x       y       z     vdW  Elec       q    Type
REMARK                         _______ _______ _______ _____ _____    ______ ____
ROOT
ATOM      1  CB  HIS A   1      66.480  34.826  40.109  0.00  0.00    +0.072 C 
ENDROOT
BRANCH   1   2
ATOM      2  CG  HIS A   1      66.939  35.354  41.432  0.00  0.00    +0.082 A 
ATOM      3  ND1 HIS A   1      66.587  34.782  42.632  0.00  0.00    -0.227 NA
ATOM      4  CE1 HIS A   1      67.128  35.490  43.628  0.00  0.00    +0.199 A 
ATOM      5  NE2 HIS A   1      67.762  36.530  43.109  0.00  0.00    -0.221 NA
ATOM      6  CD2 HIS A   1      67.656  36.471  41.741  0.00  0.00    +0.115 A 
ENDBRANCH   1   2
BRANCH   1   7
ATOM      7  CA  HIS A   1      66.761  33.360  39.849  0.00  0.00    +0.139 C 
BRANCH   7   8
ATOM      8  N   HIS A   1      67.137  33.121  38.478  0.00  0.00    -0.239 NA
ATOM      9  H   HIS A   1      66.407  32.897  37.772  0.00  0.00    +0.142 HD
ENDBRANCH   7   8
BRANCH   7  10
ATOM     10  C   HIS A   1      65.712  32.427  40.375  0.00  0.00    +0.224 C 
ATOM     11  O   HIS A   1      65.425  31.374  39.775  0.00  0.00    -0.287 OA
ENDBRANCH   7  10
ENDBRANCH   1   7
TORSDOF 4
REMARK  Name = ../refined-set-2016/1ew9/1ew9_pocket.pdb
REMARK  114 active torsions:
REMARK  status: ('A' for Active; 'I' for Inactive)
REMARK    1  A    between atoms: _1  and  _3
REMARK    2  A    between atoms: _3  and  _4
REMARK    3  A    between atoms: _3  and  _6
REMARK    4  A    between atoms: _6  and  _7
REMARK    5  A    between atoms: _7  and  _8
REMARK    6  A    between atoms: _7  and  _9
REMARK    7  A    between atoms: _8  and  ZN_261
REMARK    8  A    between atoms: _9  and  MG_262
REMARK    9  A    between atoms: _10  and  _12
REMARK   10  A    between atoms: _12  and  _13
REMARK   11  A    between atoms: _15  and  _17
REMARK   12  A    between atoms: _17  and  _18
REMARK   13  A    between atoms: _17  and  _20
REMARK   14  A    between atoms: _23  and  _25
REMARK   15  A    between atoms: _25  and  _26
REMARK   16  A    between atoms: _25  and  _28
REMARK   17  A    between atoms: _28  and  _29
REMARK   18  A    between atoms: _32  and  _34
REMARK   19  A    between atoms: _34  and  _35
REMARK   20  A    between atoms: _34  and  _37
REMARK   21  A    between atoms: _37  and  _38
REMARK   22  A    between atoms: _41  and  _43
REMARK   23  A    between atoms: _43  and  _44
REMARK   24  A    between atoms: _43  and  _46
REMARK   25  A    between atoms: _46  and  _47
REMARK   26  A    between atoms: _49  and  _51
REMARK   27  A    between atoms: _51  and  _52
REMARK   28  A    between atoms: _55  and  _57
REMARK   29  A    between atoms: _57  and  _58
REMARK   30  A    between atoms: _61  and  _63
REMARK   31  A    between atoms: _63  and  _64
REMARK   32  A    between atoms: _63  and  _66
REMARK   33  A    between atoms: _66  and  _67
REMARK   34  A    between atoms: _69  and  _71
REMARK   35  A    between atoms: _71  and  _72
REMARK   36  A    between atoms: _71  and  _74
REMARK   37  A    between atoms: _74  and  _75
REMARK   38  A    between atoms: _80  and  _82
REMARK   39  A    between atoms: _82  and  _83
REMARK   40  A    between atoms: _85  and  _87
REMARK   41  A    between atoms: _87  and  _88
REMARK   42  A    between atoms: _87  and  _90
REMARK   43  A    between atoms: _90  and  _91
REMARK   44  A    between atoms: _94  and  _96
REMARK   45  A    between atoms: _96  and  _97
REMARK   46  A    between atoms: _100  and  _102
REMARK   47  A    between atoms: _102  and  _103
REMARK   48  A    between atoms: _102  and  _105
REMARK   49  A    between atoms: _105  and  _106
REMARK   50  A    between atoms: _109  and  _111
REMARK   51  A    between atoms: _111  and  _112
REMARK   52  A    between atoms: _111  and  _114
REMARK   53  A    between atoms: _114  and  _115
REMARK   54  A    between atoms: _115  and  _116
REMARK   55  A    between atoms: _116  and  _117
REMARK   56  A    between atoms: _126  and  _128
REMARK   57  A    between atoms: _128  and  _129
REMARK   58  A    between atoms: _128  and  _131
REMARK   59  A    between atoms: _131  and  _132
REMARK   60  A    between atoms: _132  and  _133
REMARK   61  A    between atoms: _133  and  _134
REMARK   62  A    between atoms: _134  and  _135
REMARK   63  A    between atoms: _139  and  _141
REMARK   64  A    between atoms: _141  and  _142
REMARK   65  A    between atoms: _141  and  _144
REMARK   66  A    between atoms: _144  and  _145
REMARK   67  A    between atoms: _145  and  _146
REMARK   68  A    between atoms: _146  and  _148
REMARK   69  A    between atoms: _148  and  MG_262
REMARK   70  A    between atoms: _149  and  _151
REMARK   71  A    between atoms: _151  and  _152
REMARK   72  A    between atoms: _155  and  _157
REMARK   73  A    between atoms: _157  and  _158
REMARK   74  A    between atoms: _157  and  _160
REMARK   75  A    between atoms: _160  and  _161
REMARK   76  A    between atoms: _161  and  _162
REMARK   77  A    between atoms: _162  and  ZN_260
REMARK   78  A    between atoms: _164  and  _166
REMARK   79  A    between atoms: _166  and  _167
REMARK   80  A    between atoms: _166  and  _169
REMARK   81  A    between atoms: _169  and  _170
REMARK   82  A    between atoms: _170  and  _171
REMARK   83  A    between atoms: _171  and  _172
REMARK   84  A    between atoms: _172  and  _173
REMARK   85  A    between atoms: _177  and  _179
REMARK   86  A    between atoms: _179  and  _180
REMARK   87  A    between atoms: _179  and  _182
REMARK   88  A    between atoms: _182  and  _183
REMARK   89  A    between atoms: _187  and  ZN_260
REMARK   90  A    between atoms: _188  and  _190
REMARK   91  A    between atoms: _199  and  _200
REMARK   92  A    between atoms: _208  and  _210
REMARK   93  A    between atoms: _210  and  _211
REMARK   94  A    between atoms: _210  and  _213
REMARK   95  A    between atoms: _213  and  _214
REMARK   96  A    between atoms: _219  and  _221
REMARK   97  A    between atoms: _221  and  _222
REMARK   98  A    between atoms: _221  and  _224
REMARK   99  A    between atoms: _224  and  _225
REMARK  100  A    between atoms: _227  and  _229
REMARK  101  A    between atoms: _229  and  _230
REMARK  102  A    between atoms: _229  and  _232
REMARK  103  A    between atoms: _232  and  _233
REMARK  104  A    between atoms: _233  and  _234
REMARK  105  A    between atoms: _239  and  _241
REMARK  106  A    between atoms: _241  and  _242
REMARK  107  A    between atoms: _241  and  _244
REMARK  108  A    between atoms: _244  and  _245
REMARK  109  A    between atoms: _245  and  _246
REMARK  110  A    between atoms: _249  and  _251
REMARK  111  A    between atoms: _251  and  _252
REMARK  112  A    between atoms: _251  and  _254
REMARK  113  A    between atoms: _254  and  _255
REMARK  114  A    between atoms: _259  and  ZN_260
REMARK                            x       y       z     vdW  Elec       q    Type
REMARK                         _______ _______ _______ _____ _____    ______ ____
ROOT
ATOM      1  O   HOH     1      72.248  42.179  43.573  0.00  0.00    +0.000 OA
ENDROOT
TORSDOF 0
REMARK  Name = ../refined-set-2016/1ew9/1ew9_pocket.pdb
REMARK  114 active torsions:
REMARK  status: ('A' for Active; 'I' for Inactive)
REMARK    1  A    between atoms: _1  and  _3
REMARK    2  A    between atoms: _3  and  _4
REMARK    3  A    between atoms: _3  and  _6
REMARK    4  A    between atoms: _6  and  _7
REMARK    5  A    between atoms: _7  and  _8
REMARK    6  A    between atoms: _7  and  _9
REMARK    7  A    between atoms: _8  and  ZN_261
REMARK    8  A    between atoms: _9  and  MG_262
REMARK    9  A    between atoms: _10  and  _12
REMARK   10  A    between atoms: _12  and  _13
REMARK   11  A    between atoms: _15  and  _17
REMARK   12  A    between atoms: _17  and  _18
REMARK   13  A    between atoms: _17  and  _20
REMARK   14  A    between atoms: _23  and  _25
REMARK   15  A    between atoms: _25  and  _26
REMARK   16  A    between atoms: _25  and  _28
REMARK   17  A    between atoms: _28  and  _29
REMARK   18  A    between atoms: _32  and  _34
REMARK   19  A    between atoms: _34  and  _35
REMARK   20  A    between atoms: _34  and  _37
REMARK   21  A    between atoms: _37  and  _38
REMARK   22  A    between atoms: _41  and  _43
REMARK   23  A    between atoms: _43  and  _44
REMARK   24  A    between atoms: _43  and  _46
REMARK   25  A    between atoms: _46  and  _47
REMARK   26  A    between atoms: _49  and  _51
REMARK   27  A    between atoms: _51  and  _52
REMARK   28  A    between atoms: _55  and  _57
REMARK   29  A    between atoms: _57  and  _58
REMARK   30  A    between atoms: _61  and  _63
REMARK   31  A    between atoms: _63  and  _64
REMARK   32  A    between atoms: _63  and  _66
REMARK   33  A    between atoms: _66  and  _67
REMARK   34  A    between atoms: _69  and  _71
REMARK   35  A    between atoms: _71  and  _72
REMARK   36  A    between atoms: _71  and  _74
REMARK   37  A    between atoms: _74  and  _75
REMARK   38  A    between atoms: _80  and  _82
REMARK   39  A    between atoms: _82  and  _83
REMARK   40  A    between atoms: _85  and  _87
REMARK   41  A    between atoms: _87  and  _88
REMARK   42  A    between atoms: _87  and  _90
REMARK   43  A    between atoms: _90  and  _91
REMARK   44  A    between atoms: _94  and  _96
REMARK   45  A    between atoms: _96  and  _97
REMARK   46  A    between atoms: _100  and  _102
REMARK   47  A    between atoms: _102  and  _103
REMARK   48  A    between atoms: _102  and  _105
REMARK   49  A    between atoms: _105  and  _106
REMARK   50  A    between atoms: _109  and  _111
REMARK   51  A    between atoms: _111  and  _112
REMARK   52  A    between atoms: _111  and  _114
REMARK   53  A    between atoms: _114  and  _115
REMARK   54  A    between atoms: _115  and  _116
REMARK   55  A    between atoms: _116  and  _117
REMARK   56  A    between atoms: _126  and  _128
REMARK   57  A    between atoms: _128  and  _129
REMARK   58  A    between atoms: _128  and  _131
REMARK   59  A    between atoms: _131  and  _132
REMARK   60  A    between atoms: _132  and  _133
REMARK   61  A    between atoms: _133  and  _134
REMARK   62  A    between atoms: _134  and  _135
REMARK   63  A    between atoms: _139  and  _141
REMARK   64  A    between atoms: _141  and  _142
REMARK   65  A    between atoms: _141  and  _144
REMARK   66  A    between atoms: _144  and  _145
REMARK   67  A    between atoms: _145  and  _146
REMARK   68  A    between atoms: _146  and  _148
REMARK   69  A    between atoms: _148  and  MG_262
REMARK   70  A    between atoms: _149  and  _151
REMARK   71  A    between atoms: _151  and  _152
REMARK   72  A    between atoms: _155  and  _157
REMARK   73  A    between atoms: _157  and  _158
REMARK   74  A    between atoms: _157  and  _160
REMARK   75  A    between atoms: _160  and  _161
REMARK   76  A    between atoms: _161  and  _162
REMARK   77  A    between atoms: _162  and  ZN_260
REMARK   78  A    between atoms: _164  and  _166
REMARK   79  A    between atoms: _166  and  _167
REMARK   80  A    between atoms: _166  and  _169
REMARK   81  A    between atoms: _169  and  _170
REMARK   82  A    between atoms: _170  and  _171
REMARK   83  A    between atoms: _171  and  _172
REMARK   84  A    between atoms: _172  and  _173
REMARK   85  A    between atoms: _177  and  _179
REMARK   86  A    between atoms: _179  and  _180
REMARK   87  A    between atoms: _179  and  _182
REMARK   88  A    between atoms: _182  and  _183
REMARK   89  A    between atoms: _187  and  ZN_260
REMARK   90  A    between atoms: _188  and  _190
REMARK   91  A    between atoms: _199  and  _200
REMARK   92  A    between atoms: _208  and  _210
REMARK   93  A    between atoms: _210  and  _211
REMARK   94  A    between atoms: _210  and  _213
REMARK   95  A    between atoms: _213  and  _214
REMARK   96  A    between atoms: _219  and  _221
REMARK   97  A    between atoms: _221  and  _222
REMARK   98  A    between atoms: _221  and  _224
REMARK   99  A    between atoms: _224  and  _225
REMARK  100  A    between atoms: _227  and  _229
REMARK  101  A    between atoms: _229  and  _230
REMARK  102  A    between atoms: _229  and  _232
REMARK  103  A    between atoms: _232  and  _233
REMARK  104  A    between atoms: _233  and  _234
REMARK  105  A    between atoms: _239  and  _241
REMARK  106  A    between atoms: _241  and  _242
REMARK  107  A    between atoms: _241  and  _244
REMARK  108  A    between atoms: _244  and  _245
REMARK  109  A    between atoms: _245  and  _246
REMARK  110  A    between atoms: _249  and  _251
REMARK  111  A    between atoms: _251  and  _252
REMARK  112  A    between atoms: _251  and  _254
REMARK  113  A    between atoms: _254  and  _255
REMARK  114  A    between atoms: _259  and  ZN_260
REMARK                            x       y       z     vdW  Elec       q    Type
REMARK                         _______ _______ _______ _____ _____    ______ ____
ROOT
ATOM      1  O   HOH     1      79.227  35.602  46.277  0.00  0.00    +0.000 OA
ENDROOT
TORSDOF 0
REMARK  Name = ../refined-set-2016/1ew9/1ew9_pocket.pdb
REMARK  114 active torsions:
REMARK  status: ('A' for Active; 'I' for Inactive)
REMARK    1  A    between atoms: _1  and  _3
REMARK    2  A    between atoms: _3  and  _4
REMARK    3  A    between atoms: _3  and  _6
REMARK    4  A    between atoms: _6  and  _7
REMARK    5  A    between atoms: _7  and  _8
REMARK    6  A    between atoms: _7  and  _9
REMARK    7  A    between atoms: _8  and  ZN_261
REMARK    8  A    between atoms: _9  and  MG_262
REMARK    9  A    between atoms: _10  and  _12
REMARK   10  A    between atoms: _12  and  _13
REMARK   11  A    between atoms: _15  and  _17
REMARK   12  A    between atoms: _17  and  _18
REMARK   13  A    between atoms: _17  and  _20
REMARK   14  A    between atoms: _23  and  _25
REMARK   15  A    between atoms: _25  and  _26
REMARK   16  A    between atoms: _25  and  _28
REMARK   17  A    between atoms: _28  and  _29
REMARK   18  A    between atoms: _32  and  _34
REMARK   19  A    between atoms: _34  and  _35
REMARK   20  A    between atoms: _34  and  _37
REMARK   21  A    between atoms: _37  and  _38
REMARK   22  A    between atoms: _41  and  _43
REMARK   23  A    between atoms: _43  and  _44
REMARK   24  A    between atoms: _43  and  _46
REMARK   25  A    between atoms: _46  and  _47
REMARK   26  A    between atoms: _49  and  _51
REMARK   27  A    between atoms: _51  and  _52
REMARK   28  A    between atoms: _55  and  _57
REMARK   29  A    between atoms: _57  and  _58
REMARK   30  A    between atoms: _61  and  _63
REMARK   31  A    between atoms: _63  and  _64
REMARK   32  A    between atoms: _63  and  _66
REMARK   33  A    between atoms: _66  and  _67
REMARK   34  A    between atoms: _69  and  _71
REMARK   35  A    between atoms: _71  and  _72
REMARK   36  A    between atoms: _71  and  _74
REMARK   37  A    between atoms: _74  and  _75
REMARK   38  A    between atoms: _80  and  _82
REMARK   39  A    between atoms: _82  and  _83
REMARK   40  A    between atoms: _85  and  _87
REMARK   41  A    between atoms: _87  and  _88
REMARK   42  A    between atoms: _87  and  _90
REMARK   43  A    between atoms: _90  and  _91
REMARK   44  A    between atoms: _94  and  _96
REMARK   45  A    between atoms: _96  and  _97
REMARK   46  A    between atoms: _100  and  _102
REMARK   47  A    between atoms: _102  and  _103
REMARK   48  A    between atoms: _102  and  _105
REMARK   49  A    between atoms: _105  and  _106
REMARK   50  A    between atoms: _109  and  _111
REMARK   51  A    between atoms: _111  and  _112
REMARK   52  A    between atoms: _111  and  _114
REMARK   53  A    between atoms: _114  and  _115
REMARK   54  A    between atoms: _115  and  _116
REMARK   55  A    between atoms: _116  and  _117
REMARK   56  A    between atoms: _126  and  _128
REMARK   57  A    between atoms: _128  and  _129
REMARK   58  A    between atoms: _128  and  _131
REMARK   59  A    between atoms: _131  and  _132
REMARK   60  A    between atoms: _132  and  _133
REMARK   61  A    between atoms: _133  and  _134
REMARK   62  A    between atoms: _134  and  _135
REMARK   63  A    between atoms: _139  and  _141
REMARK   64  A    between atoms: _141  and  _142
REMARK   65  A    between atoms: _141  and  _144
REMARK   66  A    between atoms: _144  and  _145
REMARK   67  A    between atoms: _145  and  _146
REMARK   68  A    between atoms: _146  and  _148
REMARK   69  A    between atoms: _148  and  MG_262
REMARK   70  A    between atoms: _149  and  _151
REMARK   71  A    between atoms: _151  and  _152
REMARK   72  A    between atoms: _155  and  _157
REMARK   73  A    between atoms: _157  and  _158
REMARK   74  A    between atoms: _157  and  _160
REMARK   75  A    between atoms: _160  and  _161
REMARK   76  A    between atoms: _161  and  _162
REMARK   77  A    between atoms: _162  and  ZN_260
REMARK   78  A    between atoms: _164  and  _166
REMARK   79  A    between atoms: _166  and  _167
REMARK   80  A    between atoms: _166  and  _169
REMARK   81  A    between atoms: _169  and  _170
REMARK   82  A    between atoms: _170  and  _171
REMARK   83  A    between atoms: _171  and  _172
REMARK   84  A    between atoms: _172  and  _173
REMARK   85  A    between atoms: _177  and  _179
REMARK   86  A    between atoms: _179  and  _180
REMARK   87  A    between atoms: _179  and  _182
REMARK   88  A    between atoms: _182  and  _183
REMARK   89  A    between atoms: _187  and  ZN_260
REMARK   90  A    between atoms: _188  and  _190
REMARK   91  A    between atoms: _199  and  _200
REMARK   92  A    between atoms: _208  and  _210
REMARK   93  A    between atoms: _210  and  _211
REMARK   94  A    between atoms: _210  and  _213
REMARK   95  A    between atoms: _213  and  _214
REMARK   96  A    between atoms: _219  and  _221
REMARK   97  A    between atoms: _221  and  _222
REMARK   98  A    between atoms: _221  and  _224
REMARK   99  A    between atoms: _224  and  _225
REMARK  100  A    between atoms: _227  and  _229
REMARK  101  A    between atoms: _229  and  _230
REMARK  102  A    between atoms: _229  and  _232
REMARK  103  A    between atoms: _232  and  _233
REMARK  104  A    between atoms: _233  and  _234
REMARK  105  A    between atoms: _239  and  _241
REMARK  106  A    between atoms: _241  and  _242
REMARK  107  A    between atoms: _241  and  _244
REMARK  108  A    between atoms: _244  and  _245
REMARK  109  A    between atoms: _245  and  _246
REMARK  110  A    between atoms: _249  and  _251
REMARK  111  A    between atoms: _251  and  _252
REMARK  112  A    between atoms: _251  and  _254
REMARK  113  A    between atoms: _254  and  _255
REMARK  114  A    between atoms: _259  and  ZN_260
REMARK                            x       y       z     vdW  Elec       q    Type
REMARK                         _______ _______ _______ _____ _____    ______ ____
ROOT
ATOM      1  O   HOH     1      71.648  44.093  48.535  0.00  0.00    +0.000 OA
ENDROOT
TORSDOF 0
REMARK  Name = ../refined-set-2016/1ew9/1ew9_pocket.pdb
REMARK  114 active torsions:
REMARK  status: ('A' for Active; 'I' for Inactive)
REMARK    1  A    between atoms: _1  and  _3
REMARK    2  A    between atoms: _3  and  _4
REMARK    3  A    between atoms: _3  and  _6
REMARK    4  A    between atoms: _6  and  _7
REMARK    5  A    between atoms: _7  and  _8
REMARK    6  A    between atoms: _7  and  _9
REMARK    7  A    between atoms: _8  and  ZN_261
REMARK    8  A    between atoms: _9  and  MG_262
REMARK    9  A    between atoms: _10  and  _12
REMARK   10  A    between atoms: _12  and  _13
REMARK   11  A    between atoms: _15  and  _17
REMARK   12  A    between atoms: _17  and  _18
REMARK   13  A    between atoms: _17  and  _20
REMARK   14  A    between atoms: _23  and  _25
REMARK   15  A    between atoms: _25  and  _26
REMARK   16  A    between atoms: _25  and  _28
REMARK   17  A    between atoms: _28  and  _29
REMARK   18  A    between atoms: _32  and  _34
REMARK   19  A    between atoms: _34  and  _35
REMARK   20  A    between atoms: _34  and  _37
REMARK   21  A    between atoms: _37  and  _38
REMARK   22  A    between atoms: _41  and  _43
REMARK   23  A    between atoms: _43  and  _44
REMARK   24  A    between atoms: _43  and  _46
REMARK   25  A    between atoms: _46  and  _47
REMARK   26  A    between atoms: _49  and  _51
REMARK   27  A    between atoms: _51  and  _52
REMARK   28  A    between atoms: _55  and  _57
REMARK   29  A    between atoms: _57  and  _58
REMARK   30  A    between atoms: _61  and  _63
REMARK   31  A    between atoms: _63  and  _64
REMARK   32  A    between atoms: _63  and  _66
REMARK   33  A    between atoms: _66  and  _67
REMARK   34  A    between atoms: _69  and  _71
REMARK   35  A    between atoms: _71  and  _72
REMARK   36  A    between atoms: _71  and  _74
REMARK   37  A    between atoms: _74  and  _75
REMARK   38  A    between atoms: _80  and  _82
REMARK   39  A    between atoms: _82  and  _83
REMARK   40  A    between atoms: _85  and  _87
REMARK   41  A    between atoms: _87  and  _88
REMARK   42  A    between atoms: _87  and  _90
REMARK   43  A    between atoms: _90  and  _91
REMARK   44  A    between atoms: _94  and  _96
REMARK   45  A    between atoms: _96  and  _97
REMARK   46  A    between atoms: _100  and  _102
REMARK   47  A    between atoms: _102  and  _103
REMARK   48  A    between atoms: _102  and  _105
REMARK   49  A    between atoms: _105  and  _106
REMARK   50  A    between atoms: _109  and  _111
REMARK   51  A    between atoms: _111  and  _112
REMARK   52  A    between atoms: _111  and  _114
REMARK   53  A    between atoms: _114  and  _115
REMARK   54  A    between atoms: _115  and  _116
REMARK   55  A    between atoms: _116  and  _117
REMARK   56  A    between atoms: _126  and  _128
REMARK   57  A    between atoms: _128  and  _129
REMARK   58  A    between atoms: _128  and  _131
REMARK   59  A    between atoms: _131  and  _132
REMARK   60  A    between atoms: _132  and  _133
REMARK   61  A    between atoms: _133  and  _134
REMARK   62  A    between atoms: _134  and  _135
REMARK   63  A    between atoms: _139  and  _141
REMARK   64  A    between atoms: _141  and  _142
REMARK   65  A    between atoms: _141  and  _144
REMARK   66  A    between atoms: _144  and  _145
REMARK   67  A    between atoms: _145  and  _146
REMARK   68  A    between atoms: _146  and  _148
REMARK   69  A    between atoms: _148  and  MG_262
REMARK   70  A    between atoms: _149  and  _151
REMARK   71  A    between atoms: _151  and  _152
REMARK   72  A    between atoms: _155  and  _157
REMARK   73  A    between atoms: _157  and  _158
REMARK   74  A    between atoms: _157  and  _160
REMARK   75  A    between atoms: _160  and  _161
REMARK   76  A    between atoms: _161  and  _162
REMARK   77  A    between atoms: _162  and  ZN_260
REMARK   78  A    between atoms: _164  and  _166
REMARK   79  A    between atoms: _166  and  _167
REMARK   80  A    between atoms: _166  and  _169
REMARK   81  A    between atoms: _169  and  _170
REMARK   82  A    between atoms: _170  and  _171
REMARK   83  A    between atoms: _171  and  _172
REMARK   84  A    between atoms: _172  and  _173
REMARK   85  A    between atoms: _177  and  _179
REMARK   86  A    between atoms: _179  and  _180
REMARK   87  A    between atoms: _179  and  _182
REMARK   88  A    between atoms: _182  and  _183
REMARK   89  A    between atoms: _187  and  ZN_260
REMARK   90  A    between atoms: _188  and  _190
REMARK   91  A    between atoms: _199  and  _200
REMARK   92  A    between atoms: _208  and  _210
REMARK   93  A    between atoms: _210  and  _211
REMARK   94  A    between atoms: _210  and  _213
REMARK   95  A    between atoms: _213  and  _214
REMARK   96  A    between atoms: _219  and  _221
REMARK   97  A    between atoms: _221  and  _222
REMARK   98  A    between atoms: _221  and  _224
REMARK   99  A    between atoms: _224  and  _225
REMARK  100  A    between atoms: _227  and  _229
REMARK  101  A    between atoms: _229  and  _230
REMARK  102  A    between atoms: _229  and  _232
REMARK  103  A    between atoms: _232  and  _233
REMARK  104  A    between atoms: _233  and  _234
REMARK  105  A    between atoms: _239  and  _241
REMARK  106  A    between atoms: _241  and  _242
REMARK  107  A    between atoms: _241  and  _244
REMARK  108  A    between atoms: _244  and  _245
REMARK  109  A    between atoms: _245  and  _246
REMARK  110  A    between atoms: _249  and  _251
REMARK  111  A    between atoms: _251  and  _252
REMARK  112  A    between atoms: _251  and  _254
REMARK  113  A    between atoms: _254  and  _255
REMARK  114  A    between atoms: _259  and  ZN_260
REMARK                            x       y       z     vdW  Elec       q    Type
REMARK                         _______ _______ _______ _____ _____    ______ ____
ROOT
ATOM      1  O   HOH     1      78.785  43.111  45.751  0.00  0.00    +0.000 OA
ENDROOT
TORSDOF 0
REMARK  Name = ../refined-set-2016/1ew9/1ew9_pocket.pdb
REMARK  114 active torsions:
REMARK  status: ('A' for Active; 'I' for Inactive)
REMARK    1  A    between atoms: _1  and  _3
REMARK    2  A    between atoms: _3  and  _4
REMARK    3  A    between atoms: _3  and  _6
REMARK    4  A    between atoms: _6  and  _7
REMARK    5  A    between atoms: _7  and  _8
REMARK    6  A    between atoms: _7  and  _9
REMARK    7  A    between atoms: _8  and  ZN_261
REMARK    8  A    between atoms: _9  and  MG_262
REMARK    9  A    between atoms: _10  and  _12
REMARK   10  A    between atoms: _12  and  _13
REMARK   11  A    between atoms: _15  and  _17
REMARK   12  A    between atoms: _17  and  _18
REMARK   13  A    between atoms: _17  and  _20
REMARK   14  A    between atoms: _23  and  _25
REMARK   15  A    between atoms: _25  and  _26
REMARK   16  A    between atoms: _25  and  _28
REMARK   17  A    between atoms: _28  and  _29
REMARK   18  A    between atoms: _32  and  _34
REMARK   19  A    between atoms: _34  and  _35
REMARK   20  A    between atoms: _34  and  _37
REMARK   21  A    between atoms: _37  and  _38
REMARK   22  A    between atoms: _41  and  _43
REMARK   23  A    between atoms: _43  and  _44
REMARK   24  A    between atoms: _43  and  _46
REMARK   25  A    between atoms: _46  and  _47
REMARK   26  A    between atoms: _49  and  _51
REMARK   27  A    between atoms: _51  and  _52
REMARK   28  A    between atoms: _55  and  _57
REMARK   29  A    between atoms: _57  and  _58
REMARK   30  A    between atoms: _61  and  _63
REMARK   31  A    between atoms: _63  and  _64
REMARK   32  A    between atoms: _63  and  _66
REMARK   33  A    between atoms: _66  and  _67
REMARK   34  A    between atoms: _69  and  _71
REMARK   35  A    between atoms: _71  and  _72
REMARK   36  A    between atoms: _71  and  _74
REMARK   37  A    between atoms: _74  and  _75
REMARK   38  A    between atoms: _80  and  _82
REMARK   39  A    between atoms: _82  and  _83
REMARK   40  A    between atoms: _85  and  _87
REMARK   41  A    between atoms: _87  and  _88
REMARK   42  A    between atoms: _87  and  _90
REMARK   43  A    between atoms: _90  and  _91
REMARK   44  A    between atoms: _94  and  _96
REMARK   45  A    between atoms: _96  and  _97
REMARK   46  A    between atoms: _100  and  _102
REMARK   47  A    between atoms: _102  and  _103
REMARK   48  A    between atoms: _102  and  _105
REMARK   49  A    between atoms: _105  and  _106
REMARK   50  A    between atoms: _109  and  _111
REMARK   51  A    between atoms: _111  and  _112
REMARK   52  A    between atoms: _111  and  _114
REMARK   53  A    between atoms: _114  and  _115
REMARK   54  A    between atoms: _115  and  _116
REMARK   55  A    between atoms: _116  and  _117
REMARK   56  A    between atoms: _126  and  _128
REMARK   57  A    between atoms: _128  and  _129
REMARK   58  A    between atoms: _128  and  _131
REMARK   59  A    between atoms: _131  and  _132
REMARK   60  A    between atoms: _132  and  _133
REMARK   61  A    between atoms: _133  and  _134
REMARK   62  A    between atoms: _134  and  _135
REMARK   63  A    between atoms: _139  and  _141
REMARK   64  A    between atoms: _141  and  _142
REMARK   65  A    between atoms: _141  and  _144
REMARK   66  A    between atoms: _144  and  _145
REMARK   67  A    between atoms: _145  and  _146
REMARK   68  A    between atoms: _146  and  _148
REMARK   69  A    between atoms: _148  and  MG_262
REMARK   70  A    between atoms: _149  and  _151
REMARK   71  A    between atoms: _151  and  _152
REMARK   72  A    between atoms: _155  and  _157
REMARK   73  A    between atoms: _157  and  _158
REMARK   74  A    between atoms: _157  and  _160
REMARK   75  A    between atoms: _160  and  _161
REMARK   76  A    between atoms: _161  and  _162
REMARK   77  A    between atoms: _162  and  ZN_260
REMARK   78  A    between atoms: _164  and  _166
REMARK   79  A    between atoms: _166  and  _167
REMARK   80  A    between atoms: _166  and  _169
REMARK   81  A    between atoms: _169  and  _170
REMARK   82  A    between atoms: _170  and  _171
REMARK   83  A    between atoms: _171  and  _172
REMARK   84  A    between atoms: _172  and  _173
REMARK   85  A    between atoms: _177  and  _179
REMARK   86  A    between atoms: _179  and  _180
REMARK   87  A    between atoms: _179  and  _182
REMARK   88  A    between atoms: _182  and  _183
REMARK   89  A    between atoms: _187  and  ZN_260
REMARK   90  A    between atoms: _188  and  _190
REMARK   91  A    between atoms: _199  and  _200
REMARK   92  A    between atoms: _208  and  _210
REMARK   93  A    between atoms: _210  and  _211
REMARK   94  A    between atoms: _210  and  _213
REMARK   95  A    between atoms: _213  and  _214
REMARK   96  A    between atoms: _219  and  _221
REMARK   97  A    between atoms: _221  and  _222
REMARK   98  A    between atoms: _221  and  _224
REMARK   99  A    between atoms: _224  and  _225
REMARK  100  A    between atoms: _227  and  _229
REMARK  101  A    between atoms: _229  and  _230
REMARK  102  A    between atoms: _229  and  _232
REMARK  103  A    between atoms: _232  and  _233
REMARK  104  A    between atoms: _233  and  _234
REMARK  105  A    between atoms: _239  and  _241
REMARK  106  A    between atoms: _241  and  _242
REMARK  107  A    between atoms: _241  and  _244
REMARK  108  A    between atoms: _244  and  _245
REMARK  109  A    between atoms: _245  and  _246
REMARK  110  A    between atoms: _249  and  _251
REMARK  111  A    between atoms: _251  and  _252
REMARK  112  A    between atoms: _251  and  _254
REMARK  113  A    between atoms: _254  and  _255
REMARK  114  A    between atoms: _259  and  ZN_260
REMARK                            x       y       z     vdW  Elec       q    Type
REMARK                         _______ _______ _______ _____ _____    ______ ____
ROOT
ATOM      1  O   HOH     1      76.313  40.956  37.681  0.00  0.00    +0.000 OA
ENDROOT
TORSDOF 0
REMARK  Name = ../refined-set-2016/1ew9/1ew9_pocket.pdb
REMARK  114 active torsions:
REMARK  status: ('A' for Active; 'I' for Inactive)
REMARK    1  A    between atoms: _1  and  _3
REMARK    2  A    between atoms: _3  and  _4
REMARK    3  A    between atoms: _3  and  _6
REMARK    4  A    between atoms: _6  and  _7
REMARK    5  A    between atoms: _7  and  _8
REMARK    6  A    between atoms: _7  and  _9
REMARK    7  A    between atoms: _8  and  ZN_261
REMARK    8  A    between atoms: _9  and  MG_262
REMARK    9  A    between atoms: _10  and  _12
REMARK   10  A    between atoms: _12  and  _13
REMARK   11  A    between atoms: _15  and  _17
REMARK   12  A    between atoms: _17  and  _18
REMARK   13  A    between atoms: _17  and  _20
REMARK   14  A    between atoms: _23  and  _25
REMARK   15  A    between atoms: _25  and  _26
REMARK   16  A    between atoms: _25  and  _28
REMARK   17  A    between atoms: _28  and  _29
REMARK   18  A    between atoms: _32  and  _34
REMARK   19  A    between atoms: _34  and  _35
REMARK   20  A    between atoms: _34  and  _37
REMARK   21  A    between atoms: _37  and  _38
REMARK   22  A    between atoms: _41  and  _43
REMARK   23  A    between atoms: _43  and  _44
REMARK   24  A    between atoms: _43  and  _46
REMARK   25  A    between atoms: _46  and  _47
REMARK   26  A    between atoms: _49  and  _51
REMARK   27  A    between atoms: _51  and  _52
REMARK   28  A    between atoms: _55  and  _57
REMARK   29  A    between atoms: _57  and  _58
REMARK   30  A    between atoms: _61  and  _63
REMARK   31  A    between atoms: _63  and  _64
REMARK   32  A    between atoms: _63  and  _66
REMARK   33  A    between atoms: _66  and  _67
REMARK   34  A    between atoms: _69  and  _71
REMARK   35  A    between atoms: _71  and  _72
REMARK   36  A    between atoms: _71  and  _74
REMARK   37  A    between atoms: _74  and  _75
REMARK   38  A    between atoms: _80  and  _82
REMARK   39  A    between atoms: _82  and  _83
REMARK   40  A    between atoms: _85  and  _87
REMARK   41  A    between atoms: _87  and  _88
REMARK   42  A    between atoms: _87  and  _90
REMARK   43  A    between atoms: _90  and  _91
REMARK   44  A    between atoms: _94  and  _96
REMARK   45  A    between atoms: _96  and  _97
REMARK   46  A    between atoms: _100  and  _102
REMARK   47  A    between atoms: _102  and  _103
REMARK   48  A    between atoms: _102  and  _105
REMARK   49  A    between atoms: _105  and  _106
REMARK   50  A    between atoms: _109  and  _111
REMARK   51  A    between atoms: _111  and  _112
REMARK   52  A    between atoms: _111  and  _114
REMARK   53  A    between atoms: _114  and  _115
REMARK   54  A    between atoms: _115  and  _116
REMARK   55  A    between atoms: _116  and  _117
REMARK   56  A    between atoms: _126  and  _128
REMARK   57  A    between atoms: _128  and  _129
REMARK   58  A    between atoms: _128  and  _131
REMARK   59  A    between atoms: _131  and  _132
REMARK   60  A    between atoms: _132  and  _133
REMARK   61  A    between atoms: _133  and  _134
REMARK   62  A    between atoms: _134  and  _135
REMARK   63  A    between atoms: _139  and  _141
REMARK   64  A    between atoms: _141  and  _142
REMARK   65  A    between atoms: _141  and  _144
REMARK   66  A    between atoms: _144  and  _145
REMARK   67  A    between atoms: _145  and  _146
REMARK   68  A    between atoms: _146  and  _148
REMARK   69  A    between atoms: _148  and  MG_262
REMARK   70  A    between atoms: _149  and  _151
REMARK   71  A    between atoms: _151  and  _152
REMARK   72  A    between atoms: _155  and  _157
REMARK   73  A    between atoms: _157  and  _158
REMARK   74  A    between atoms: _157  and  _160
REMARK   75  A    between atoms: _160  and  _161
REMARK   76  A    between atoms: _161  and  _162
REMARK   77  A    between atoms: _162  and  ZN_260
REMARK   78  A    between atoms: _164  and  _166
REMARK   79  A    between atoms: _166  and  _167
REMARK   80  A    between atoms: _166  and  _169
REMARK   81  A    between atoms: _169  and  _170
REMARK   82  A    between atoms: _170  and  _171
REMARK   83  A    between atoms: _171  and  _172
REMARK   84  A    between atoms: _172  and  _173
REMARK   85  A    between atoms: _177  and  _179
REMARK   86  A    between atoms: _179  and  _180
REMARK   87  A    between atoms: _179  and  _182
REMARK   88  A    between atoms: _182  and  _183
REMARK   89  A    between atoms: _187  and  ZN_260
REMARK   90  A    between atoms: _188  and  _190
REMARK   91  A    between atoms: _199  and  _200
REMARK   92  A    between atoms: _208  and  _210
REMARK   93  A    between atoms: _210  and  _211
REMARK   94  A    between atoms: _210  and  _213
REMARK   95  A    between atoms: _213  and  _214
REMARK   96  A    between atoms: _219  and  _221
REMARK   97  A    between atoms: _221  and  _222
REMARK   98  A    between atoms: _221  and  _224
REMARK   99  A    between atoms: _224  and  _225
REMARK  100  A    between atoms: _227  and  _229
REMARK  101  A    between atoms: _229  and  _230
REMARK  102  A    between atoms: _229  and  _232
REMARK  103  A    between atoms: _232  and  _233
REMARK  104  A    between atoms: _233  and  _234
REMARK  105  A    between atoms: _239  and  _241
REMARK  106  A    between atoms: _241  and  _242
REMARK  107  A    between atoms: _241  and  _244
REMARK  108  A    between atoms: _244  and  _245
REMARK  109  A    between atoms: _245  and  _246
REMARK  110  A    between atoms: _249  and  _251
REMARK  111  A    between atoms: _251  and  _252
REMARK  112  A    between atoms: _251  and  _254
REMARK  113  A    between atoms: _254  and  _255
REMARK  114  A    between atoms: _259  and  ZN_260
REMARK                            x       y       z     vdW  Elec       q    Type
REMARK                         _______ _______ _______ _____ _____    ______ ____
ROOT
ATOM      1  O   HOH     1      72.193  32.986  45.151  0.00  0.00    +0.000 OA
ENDROOT
TORSDOF 0
REMARK  Name = ../refined-set-2016/1ew9/1ew9_pocket.pdb
REMARK  114 active torsions:
REMARK  status: ('A' for Active; 'I' for Inactive)
REMARK    1  A    between atoms: _1  and  _3
REMARK    2  A    between atoms: _3  and  _4
REMARK    3  A    between atoms: _3  and  _6
REMARK    4  A    between atoms: _6  and  _7
REMARK    5  A    between atoms: _7  and  _8
REMARK    6  A    between atoms: _7  and  _9
REMARK    7  A    between atoms: _8  and  ZN_261
REMARK    8  A    between atoms: _9  and  MG_262
REMARK    9  A    between atoms: _10  and  _12
REMARK   10  A    between atoms: _12  and  _13
REMARK   11  A    between atoms: _15  and  _17
REMARK   12  A    between atoms: _17  and  _18
REMARK   13  A    between atoms: _17  and  _20
REMARK   14  A    between atoms: _23  and  _25
REMARK   15  A    between atoms: _25  and  _26
REMARK   16  A    between atoms: _25  and  _28
REMARK   17  A    between atoms: _28  and  _29
REMARK   18  A    between atoms: _32  and  _34
REMARK   19  A    between atoms: _34  and  _35
REMARK   20  A    between atoms: _34  and  _37
REMARK   21  A    between atoms: _37  and  _38
REMARK   22  A    between atoms: _41  and  _43
REMARK   23  A    between atoms: _43  and  _44
REMARK   24  A    between atoms: _43  and  _46
REMARK   25  A    between atoms: _46  and  _47
REMARK   26  A    between atoms: _49  and  _51
REMARK   27  A    between atoms: _51  and  _52
REMARK   28  A    between atoms: _55  and  _57
REMARK   29  A    between atoms: _57  and  _58
REMARK   30  A    between atoms: _61  and  _63
REMARK   31  A    between atoms: _63  and  _64
REMARK   32  A    between atoms: _63  and  _66
REMARK   33  A    between atoms: _66  and  _67
REMARK   34  A    between atoms: _69  and  _71
REMARK   35  A    between atoms: _71  and  _72
REMARK   36  A    between atoms: _71  and  _74
REMARK   37  A    between atoms: _74  and  _75
REMARK   38  A    between atoms: _80  and  _82
REMARK   39  A    between atoms: _82  and  _83
REMARK   40  A    between atoms: _85  and  _87
REMARK   41  A    between atoms: _87  and  _88
REMARK   42  A    between atoms: _87  and  _90
REMARK   43  A    between atoms: _90  and  _91
REMARK   44  A    between atoms: _94  and  _96
REMARK   45  A    between atoms: _96  and  _97
REMARK   46  A    between atoms: _100  and  _102
REMARK   47  A    between atoms: _102  and  _103
REMARK   48  A    between atoms: _102  and  _105
REMARK   49  A    between atoms: _105  and  _106
REMARK   50  A    between atoms: _109  and  _111
REMARK   51  A    between atoms: _111  and  _112
REMARK   52  A    between atoms: _111  and  _114
REMARK   53  A    between atoms: _114  and  _115
REMARK   54  A    between atoms: _115  and  _116
REMARK   55  A    between atoms: _116  and  _117
REMARK   56  A    between atoms: _126  and  _128
REMARK   57  A    between atoms: _128  and  _129
REMARK   58  A    between atoms: _128  and  _131
REMARK   59  A    between atoms: _131  and  _132
REMARK   60  A    between atoms: _132  and  _133
REMARK   61  A    between atoms: _133  and  _134
REMARK   62  A    between atoms: _134  and  _135
REMARK   63  A    between atoms: _139  and  _141
REMARK   64  A    between atoms: _141  and  _142
REMARK   65  A    between atoms: _141  and  _144
REMARK   66  A    between atoms: _144  and  _145
REMARK   67  A    between atoms: _145  and  _146
REMARK   68  A    between atoms: _146  and  _148
REMARK   69  A    between atoms: _148  and  MG_262
REMARK   70  A    between atoms: _149  and  _151
REMARK   71  A    between atoms: _151  and  _152
REMARK   72  A    between atoms: _155  and  _157
REMARK   73  A    between atoms: _157  and  _158
REMARK   74  A    between atoms: _157  and  _160
REMARK   75  A    between atoms: _160  and  _161
REMARK   76  A    between atoms: _161  and  _162
REMARK   77  A    between atoms: _162  and  ZN_260
REMARK   78  A    between atoms: _164  and  _166
REMARK   79  A    between atoms: _166  and  _167
REMARK   80  A    between atoms: _166  and  _169
REMARK   81  A    between atoms: _169  and  _170
REMARK   82  A    between atoms: _170  and  _171
REMARK   83  A    between atoms: _171  and  _172
REMARK   84  A    between atoms: _172  and  _173
REMARK   85  A    between atoms: _177  and  _179
REMARK   86  A    between atoms: _179  and  _180
REMARK   87  A    between atoms: _179  and  _182
REMARK   88  A    between atoms: _182  and  _183
REMARK   89  A    between atoms: _187  and  ZN_260
REMARK   90  A    between atoms: _188  and  _190
REMARK   91  A    between atoms: _199  and  _200
REMARK   92  A    between atoms: _208  and  _210
REMARK   93  A    between atoms: _210  and  _211
REMARK   94  A    between atoms: _210  and  _213
REMARK   95  A    between atoms: _213  and  _214
REMARK   96  A    between atoms: _219  and  _221
REMARK   97  A    between atoms: _221  and  _222
REMARK   98  A    between atoms: _221  and  _224
REMARK   99  A    between atoms: _224  and  _225
REMARK  100  A    between atoms: _227  and  _229
REMARK  101  A    between atoms: _229  and  _230
REMARK  102  A    between atoms: _229  and  _232
REMARK  103  A    between atoms: _232  and  _233
REMARK  104  A    between atoms: _233  and  _234
REMARK  105  A    between atoms: _239  and  _241
REMARK  106  A    between atoms: _241  and  _242
REMARK  107  A    between atoms: _241  and  _244
REMARK  108  A    between atoms: _244  and  _245
REMARK  109  A    between atoms: _245  and  _246
REMARK  110  A    between atoms: _249  and  _251
REMARK  111  A    between atoms: _251  and  _252
REMARK  112  A    between atoms: _251  and  _254
REMARK  113  A    between atoms: _254  and  _255
REMARK  114  A    between atoms: _259  and  ZN_260
REMARK                            x       y       z     vdW  Elec       q    Type
REMARK                         _______ _______ _______ _____ _____    ______ ____
ROOT
ATOM      1  O   HOH     1      80.754  36.935  48.337  0.00  0.00    +0.000 OA
ENDROOT
TORSDOF 0
REMARK  Name = ../refined-set-2016/1ew9/1ew9_pocket.pdb
REMARK  114 active torsions:
REMARK  status: ('A' for Active; 'I' for Inactive)
REMARK    1  A    between atoms: _1  and  _3
REMARK    2  A    between atoms: _3  and  _4
REMARK    3  A    between atoms: _3  and  _6
REMARK    4  A    between atoms: _6  and  _7
REMARK    5  A    between atoms: _7  and  _8
REMARK    6  A    between atoms: _7  and  _9
REMARK    7  A    between atoms: _8  and  ZN_261
REMARK    8  A    between atoms: _9  and  MG_262
REMARK    9  A    between atoms: _10  and  _12
REMARK   10  A    between atoms: _12  and  _13
REMARK   11  A    between atoms: _15  and  _17
REMARK   12  A    between atoms: _17  and  _18
REMARK   13  A    between atoms: _17  and  _20
REMARK   14  A    between atoms: _23  and  _25
REMARK   15  A    between atoms: _25  and  _26
REMARK   16  A    between atoms: _25  and  _28
REMARK   17  A    between atoms: _28  and  _29
REMARK   18  A    between atoms: _32  and  _34
REMARK   19  A    between atoms: _34  and  _35
REMARK   20  A    between atoms: _34  and  _37
REMARK   21  A    between atoms: _37  and  _38
REMARK   22  A    between atoms: _41  and  _43
REMARK   23  A    between atoms: _43  and  _44
REMARK   24  A    between atoms: _43  and  _46
REMARK   25  A    between atoms: _46  and  _47
REMARK   26  A    between atoms: _49  and  _51
REMARK   27  A    between atoms: _51  and  _52
REMARK   28  A    between atoms: _55  and  _57
REMARK   29  A    between atoms: _57  and  _58
REMARK   30  A    between atoms: _61  and  _63
REMARK   31  A    between atoms: _63  and  _64
REMARK   32  A    between atoms: _63  and  _66
REMARK   33  A    between atoms: _66  and  _67
REMARK   34  A    between atoms: _69  and  _71
REMARK   35  A    between atoms: _71  and  _72
REMARK   36  A    between atoms: _71  and  _74
REMARK   37  A    between atoms: _74  and  _75
REMARK   38  A    between atoms: _80  and  _82
REMARK   39  A    between atoms: _82  and  _83
REMARK   40  A    between atoms: _85  and  _87
REMARK   41  A    between atoms: _87  and  _88
REMARK   42  A    between atoms: _87  and  _90
REMARK   43  A    between atoms: _90  and  _91
REMARK   44  A    between atoms: _94  and  _96
REMARK   45  A    between atoms: _96  and  _97
REMARK   46  A    between atoms: _100  and  _102
REMARK   47  A    between atoms: _102  and  _103
REMARK   48  A    between atoms: _102  and  _105
REMARK   49  A    between atoms: _105  and  _106
REMARK   50  A    between atoms: _109  and  _111
REMARK   51  A    between atoms: _111  and  _112
REMARK   52  A    between atoms: _111  and  _114
REMARK   53  A    between atoms: _114  and  _115
REMARK   54  A    between atoms: _115  and  _116
REMARK   55  A    between atoms: _116  and  _117
REMARK   56  A    between atoms: _126  and  _128
REMARK   57  A    between atoms: _128  and  _129
REMARK   58  A    between atoms: _128  and  _131
REMARK   59  A    between atoms: _131  and  _132
REMARK   60  A    between atoms: _132  and  _133
REMARK   61  A    between atoms: _133  and  _134
REMARK   62  A    between atoms: _134  and  _135
REMARK   63  A    between atoms: _139  and  _141
REMARK   64  A    between atoms: _141  and  _142
REMARK   65  A    between atoms: _141  and  _144
REMARK   66  A    between atoms: _144  and  _145
REMARK   67  A    between atoms: _145  and  _146
REMARK   68  A    between atoms: _146  and  _148
REMARK   69  A    between atoms: _148  and  MG_262
REMARK   70  A    between atoms: _149  and  _151
REMARK   71  A    between atoms: _151  and  _152
REMARK   72  A    between atoms: _155  and  _157
REMARK   73  A    between atoms: _157  and  _158
REMARK   74  A    between atoms: _157  and  _160
REMARK   75  A    between atoms: _160  and  _161
REMARK   76  A    between atoms: _161  and  _162
REMARK   77  A    between atoms: _162  and  ZN_260
REMARK   78  A    between atoms: _164  and  _166
REMARK   79  A    between atoms: _166  and  _167
REMARK   80  A    between atoms: _166  and  _169
REMARK   81  A    between atoms: _169  and  _170
REMARK   82  A    between atoms: _170  and  _171
REMARK   83  A    between atoms: _171  and  _172
REMARK   84  A    between atoms: _172  and  _173
REMARK   85  A    between atoms: _177  and  _179
REMARK   86  A    between atoms: _179  and  _180
REMARK   87  A    between atoms: _179  and  _182
REMARK   88  A    between atoms: _182  and  _183
REMARK   89  A    between atoms: _187  and  ZN_260
REMARK   90  A    between atoms: _188  and  _190
REMARK   91  A    between atoms: _199  and  _200
REMARK   92  A    between atoms: _208  and  _210
REMARK   93  A    between atoms: _210  and  _211
REMARK   94  A    between atoms: _210  and  _213
REMARK   95  A    between atoms: _213  and  _214
REMARK   96  A    between atoms: _219  and  _221
REMARK   97  A    between atoms: _221  and  _222
REMARK   98  A    between atoms: _221  and  _224
REMARK   99  A    between atoms: _224  and  _225
REMARK  100  A    between atoms: _227  and  _229
REMARK  101  A    between atoms: _229  and  _230
REMARK  102  A    between atoms: _229  and  _232
REMARK  103  A    between atoms: _232  and  _233
REMARK  104  A    between atoms: _233  and  _234
REMARK  105  A    between atoms: _239  and  _241
REMARK  106  A    between atoms: _241  and  _242
REMARK  107  A    between atoms: _241  and  _244
REMARK  108  A    between atoms: _244  and  _245
REMARK  109  A    between atoms: _245  and  _246
REMARK  110  A    between atoms: _249  and  _251
REMARK  111  A    between atoms: _251  and  _252
REMARK  112  A    between atoms: _251  and  _254
REMARK  113  A    between atoms: _254  and  _255
REMARK  114  A    between atoms: _259  and  ZN_260
REMARK                            x       y       z     vdW  Elec       q    Type
REMARK                         _______ _______ _______ _____ _____    ______ ____
ROOT
ATOM      1  O   HOH     1      70.358  40.799  47.683  0.00  0.00    +0.000 OA
ENDROOT
TORSDOF 0
REMARK  Name = ../refined-set-2016/1ew9/1ew9_pocket.pdb
REMARK  114 active torsions:
REMARK  status: ('A' for Active; 'I' for Inactive)
REMARK    1  A    between atoms: _1  and  _3
REMARK    2  A    between atoms: _3  and  _4
REMARK    3  A    between atoms: _3  and  _6
REMARK    4  A    between atoms: _6  and  _7
REMARK    5  A    between atoms: _7  and  _8
REMARK    6  A    between atoms: _7  and  _9
REMARK    7  A    between atoms: _8  and  ZN_261
REMARK    8  A    between atoms: _9  and  MG_262
REMARK    9  A    between atoms: _10  and  _12
REMARK   10  A    between atoms: _12  and  _13
REMARK   11  A    between atoms: _15  and  _17
REMARK   12  A    between atoms: _17  and  _18
REMARK   13  A    between atoms: _17  and  _20
REMARK   14  A    between atoms: _23  and  _25
REMARK   15  A    between atoms: _25  and  _26
REMARK   16  A    between atoms: _25  and  _28
REMARK   17  A    between atoms: _28  and  _29
REMARK   18  A    between atoms: _32  and  _34
REMARK   19  A    between atoms: _34  and  _35
REMARK   20  A    between atoms: _34  and  _37
REMARK   21  A    between atoms: _37  and  _38
REMARK   22  A    between atoms: _41  and  _43
REMARK   23  A    between atoms: _43  and  _44
REMARK   24  A    between atoms: _43  and  _46
REMARK   25  A    between atoms: _46  and  _47
REMARK   26  A    between atoms: _49  and  _51
REMARK   27  A    between atoms: _51  and  _52
REMARK   28  A    between atoms: _55  and  _57
REMARK   29  A    between atoms: _57  and  _58
REMARK   30  A    between atoms: _61  and  _63
REMARK   31  A    between atoms: _63  and  _64
REMARK   32  A    between atoms: _63  and  _66
REMARK   33  A    between atoms: _66  and  _67
REMARK   34  A    between atoms: _69  and  _71
REMARK   35  A    between atoms: _71  and  _72
REMARK   36  A    between atoms: _71  and  _74
REMARK   37  A    between atoms: _74  and  _75
REMARK   38  A    between atoms: _80  and  _82
REMARK   39  A    between atoms: _82  and  _83
REMARK   40  A    between atoms: _85  and  _87
REMARK   41  A    between atoms: _87  and  _88
REMARK   42  A    between atoms: _87  and  _90
REMARK   43  A    between atoms: _90  and  _91
REMARK   44  A    between atoms: _94  and  _96
REMARK   45  A    between atoms: _96  and  _97
REMARK   46  A    between atoms: _100  and  _102
REMARK   47  A    between atoms: _102  and  _103
REMARK   48  A    between atoms: _102  and  _105
REMARK   49  A    between atoms: _105  and  _106
REMARK   50  A    between atoms: _109  and  _111
REMARK   51  A    between atoms: _111  and  _112
REMARK   52  A    between atoms: _111  and  _114
REMARK   53  A    between atoms: _114  and  _115
REMARK   54  A    between atoms: _115  and  _116
REMARK   55  A    between atoms: _116  and  _117
REMARK   56  A    between atoms: _126  and  _128
REMARK   57  A    between atoms: _128  and  _129
REMARK   58  A    between atoms: _128  and  _131
REMARK   59  A    between atoms: _131  and  _132
REMARK   60  A    between atoms: _132  and  _133
REMARK   61  A    between atoms: _133  and  _134
REMARK   62  A    between atoms: _134  and  _135
REMARK   63  A    between atoms: _139  and  _141
REMARK   64  A    between atoms: _141  and  _142
REMARK   65  A    between atoms: _141  and  _144
REMARK   66  A    between atoms: _144  and  _145
REMARK   67  A    between atoms: _145  and  _146
REMARK   68  A    between atoms: _146  and  _148
REMARK   69  A    between atoms: _148  and  MG_262
REMARK   70  A    between atoms: _149  and  _151
REMARK   71  A    between atoms: _151  and  _152
REMARK   72  A    between atoms: _155  and  _157
REMARK   73  A    between atoms: _157  and  _158
REMARK   74  A    between atoms: _157  and  _160
REMARK   75  A    between atoms: _160  and  _161
REMARK   76  A    between atoms: _161  and  _162
REMARK   77  A    between atoms: _162  and  ZN_260
REMARK   78  A    between atoms: _164  and  _166
REMARK   79  A    between atoms: _166  and  _167
REMARK   80  A    between atoms: _166  and  _169
REMARK   81  A    between atoms: _169  and  _170
REMARK   82  A    between atoms: _170  and  _171
REMARK   83  A    between atoms: _171  and  _172
REMARK   84  A    between atoms: _172  and  _173
REMARK   85  A    between atoms: _177  and  _179
REMARK   86  A    between atoms: _179  and  _180
REMARK   87  A    between atoms: _179  and  _182
REMARK   88  A    between atoms: _182  and  _183
REMARK   89  A    between atoms: _187  and  ZN_260
REMARK   90  A    between atoms: _188  and  _190
REMARK   91  A    between atoms: _199  and  _200
REMARK   92  A    between atoms: _208  and  _210
REMARK   93  A    between atoms: _210  and  _211
REMARK   94  A    between atoms: _210  and  _213
REMARK   95  A    between atoms: _213  and  _214
REMARK   96  A    between atoms: _219  and  _221
REMARK   97  A    between atoms: _221  and  _222
REMARK   98  A    between atoms: _221  and  _224
REMARK   99  A    between atoms: _224  and  _225
REMARK  100  A    between atoms: _227  and  _229
REMARK  101  A    between atoms: _229  and  _230
REMARK  102  A    between atoms: _229  and  _232
REMARK  103  A    between atoms: _232  and  _233
REMARK  104  A    between atoms: _233  and  _234
REMARK  105  A    between atoms: _239  and  _241
REMARK  106  A    between atoms: _241  and  _242
REMARK  107  A    between atoms: _241  and  _244
REMARK  108  A    between atoms: _244  and  _245
REMARK  109  A    between atoms: _245  and  _246
REMARK  110  A    between atoms: _249  and  _251
REMARK  111  A    between atoms: _251  and  _252
REMARK  112  A    between atoms: _251  and  _254
REMARK  113  A    between atoms: _254  and  _255
REMARK  114  A    between atoms: _259  and  ZN_260
REMARK                            x       y       z     vdW  Elec       q    Type
REMARK                         _______ _______ _______ _____ _____    ______ ____
ROOT
ATOM      1  O   HOH     1      71.037  33.149  47.974  0.00  0.00    +0.000 OA
ENDROOT
TORSDOF 0
REMARK  Name = ../refined-set-2016/1ew9/1ew9_pocket.pdb
REMARK  114 active torsions:
REMARK  status: ('A' for Active; 'I' for Inactive)
REMARK    1  A    between atoms: _1  and  _3
REMARK    2  A    between atoms: _3  and  _4
REMARK    3  A    between atoms: _3  and  _6
REMARK    4  A    between atoms: _6  and  _7
REMARK    5  A    between atoms: _7  and  _8
REMARK    6  A    between atoms: _7  and  _9
REMARK    7  A    between atoms: _8  and  ZN_261
REMARK    8  A    between atoms: _9  and  MG_262
REMARK    9  A    between atoms: _10  and  _12
REMARK   10  A    between atoms: _12  and  _13
REMARK   11  A    between atoms: _15  and  _17
REMARK   12  A    between atoms: _17  and  _18
REMARK   13  A    between atoms: _17  and  _20
REMARK   14  A    between atoms: _23  and  _25
REMARK   15  A    between atoms: _25  and  _26
REMARK   16  A    between atoms: _25  and  _28
REMARK   17  A    between atoms: _28  and  _29
REMARK   18  A    between atoms: _32  and  _34
REMARK   19  A    between atoms: _34  and  _35
REMARK   20  A    between atoms: _34  and  _37
REMARK   21  A    between atoms: _37  and  _38
REMARK   22  A    between atoms: _41  and  _43
REMARK   23  A    between atoms: _43  and  _44
REMARK   24  A    between atoms: _43  and  _46
REMARK   25  A    between atoms: _46  and  _47
REMARK   26  A    between atoms: _49  and  _51
REMARK   27  A    between atoms: _51  and  _52
REMARK   28  A    between atoms: _55  and  _57
REMARK   29  A    between atoms: _57  and  _58
REMARK   30  A    between atoms: _61  and  _63
REMARK   31  A    between atoms: _63  and  _64
REMARK   32  A    between atoms: _63  and  _66
REMARK   33  A    between atoms: _66  and  _67
REMARK   34  A    between atoms: _69  and  _71
REMARK   35  A    between atoms: _71  and  _72
REMARK   36  A    between atoms: _71  and  _74
REMARK   37  A    between atoms: _74  and  _75
REMARK   38  A    between atoms: _80  and  _82
REMARK   39  A    between atoms: _82  and  _83
REMARK   40  A    between atoms: _85  and  _87
REMARK   41  A    between atoms: _87  and  _88
REMARK   42  A    between atoms: _87  and  _90
REMARK   43  A    between atoms: _90  and  _91
REMARK   44  A    between atoms: _94  and  _96
REMARK   45  A    between atoms: _96  and  _97
REMARK   46  A    between atoms: _100  and  _102
REMARK   47  A    between atoms: _102  and  _103
REMARK   48  A    between atoms: _102  and  _105
REMARK   49  A    between atoms: _105  and  _106
REMARK   50  A    between atoms: _109  and  _111
REMARK   51  A    between atoms: _111  and  _112
REMARK   52  A    between atoms: _111  and  _114
REMARK   53  A    between atoms: _114  and  _115
REMARK   54  A    between atoms: _115  and  _116
REMARK   55  A    between atoms: _116  and  _117
REMARK   56  A    between atoms: _126  and  _128
REMARK   57  A    between atoms: _128  and  _129
REMARK   58  A    between atoms: _128  and  _131
REMARK   59  A    between atoms: _131  and  _132
REMARK   60  A    between atoms: _132  and  _133
REMARK   61  A    between atoms: _133  and  _134
REMARK   62  A    between atoms: _134  and  _135
REMARK   63  A    between atoms: _139  and  _141
REMARK   64  A    between atoms: _141  and  _142
REMARK   65  A    between atoms: _141  and  _144
REMARK   66  A    between atoms: _144  and  _145
REMARK   67  A    between atoms: _145  and  _146
REMARK   68  A    between atoms: _146  and  _148
REMARK   69  A    between atoms: _148  and  MG_262
REMARK   70  A    between atoms: _149  and  _151
REMARK   71  A    between atoms: _151  and  _152
REMARK   72  A    between atoms: _155  and  _157
REMARK   73  A    between atoms: _157  and  _158
REMARK   74  A    between atoms: _157  and  _160
REMARK   75  A    between atoms: _160  and  _161
REMARK   76  A    between atoms: _161  and  _162
REMARK   77  A    between atoms: _162  and  ZN_260
REMARK   78  A    between atoms: _164  and  _166
REMARK   79  A    between atoms: _166  and  _167
REMARK   80  A    between atoms: _166  and  _169
REMARK   81  A    between atoms: _169  and  _170
REMARK   82  A    between atoms: _170  and  _171
REMARK   83  A    between atoms: _171  and  _172
REMARK   84  A    between atoms: _172  and  _173
REMARK   85  A    between atoms: _177  and  _179
REMARK   86  A    between atoms: _179  and  _180
REMARK   87  A    between atoms: _179  and  _182
REMARK   88  A    between atoms: _182  and  _183
REMARK   89  A    between atoms: _187  and  ZN_260
REMARK   90  A    between atoms: _188  and  _190
REMARK   91  A    between atoms: _199  and  _200
REMARK   92  A    between atoms: _208  and  _210
REMARK   93  A    between atoms: _210  and  _211
REMARK   94  A    between atoms: _210  and  _213
REMARK   95  A    between atoms: _213  and  _214
REMARK   96  A    between atoms: _219  and  _221
REMARK   97  A    between atoms: _221  and  _222
REMARK   98  A    between atoms: _221  and  _224
REMARK   99  A    between atoms: _224  and  _225
REMARK  100  A    between atoms: _227  and  _229
REMARK  101  A    between atoms: _229  and  _230
REMARK  102  A    between atoms: _229  and  _232
REMARK  103  A    between atoms: _232  and  _233
REMARK  104  A    between atoms: _233  and  _234
REMARK  105  A    between atoms: _239  and  _241
REMARK  106  A    between atoms: _241  and  _242
REMARK  107  A    between atoms: _241  and  _244
REMARK  108  A    between atoms: _244  and  _245
REMARK  109  A    between atoms: _245  and  _246
REMARK  110  A    between atoms: _249  and  _251
REMARK  111  A    between atoms: _251  and  _252
REMARK  112  A    between atoms: _251  and  _254
REMARK  113  A    between atoms: _254  and  _255
REMARK  114  A    between atoms: _259  and  ZN_260
REMARK                            x       y       z     vdW  Elec       q    Type
REMARK                         _______ _______ _______ _____ _____    ______ ____
ROOT
ATOM      1  O   HOH     1      73.316  30.399  45.209  0.00  0.00    +0.000 OA
ENDROOT
TORSDOF 0
REMARK  Name = ../refined-set-2016/1ew9/1ew9_pocket.pdb
REMARK  114 active torsions:
REMARK  status: ('A' for Active; 'I' for Inactive)
REMARK    1  A    between atoms: _1  and  _3
REMARK    2  A    between atoms: _3  and  _4
REMARK    3  A    between atoms: _3  and  _6
REMARK    4  A    between atoms: _6  and  _7
REMARK    5  A    between atoms: _7  and  _8
REMARK    6  A    between atoms: _7  and  _9
REMARK    7  A    between atoms: _8  and  ZN_261
REMARK    8  A    between atoms: _9  and  MG_262
REMARK    9  A    between atoms: _10  and  _12
REMARK   10  A    between atoms: _12  and  _13
REMARK   11  A    between atoms: _15  and  _17
REMARK   12  A    between atoms: _17  and  _18
REMARK   13  A    between atoms: _17  and  _20
REMARK   14  A    between atoms: _23  and  _25
REMARK   15  A    between atoms: _25  and  _26
REMARK   16  A    between atoms: _25  and  _28
REMARK   17  A    between atoms: _28  and  _29
REMARK   18  A    between atoms: _32  and  _34
REMARK   19  A    between atoms: _34  and  _35
REMARK   20  A    between atoms: _34  and  _37
REMARK   21  A    between atoms: _37  and  _38
REMARK   22  A    between atoms: _41  and  _43
REMARK   23  A    between atoms: _43  and  _44
REMARK   24  A    between atoms: _43  and  _46
REMARK   25  A    between atoms: _46  and  _47
REMARK   26  A    between atoms: _49  and  _51
REMARK   27  A    between atoms: _51  and  _52
REMARK   28  A    between atoms: _55  and  _57
REMARK   29  A    between atoms: _57  and  _58
REMARK   30  A    between atoms: _61  and  _63
REMARK   31  A    between atoms: _63  and  _64
REMARK   32  A    between atoms: _63  and  _66
REMARK   33  A    between atoms: _66  and  _67
REMARK   34  A    between atoms: _69  and  _71
REMARK   35  A    between atoms: _71  and  _72
REMARK   36  A    between atoms: _71  and  _74
REMARK   37  A    between atoms: _74  and  _75
REMARK   38  A    between atoms: _80  and  _82
REMARK   39  A    between atoms: _82  and  _83
REMARK   40  A    between atoms: _85  and  _87
REMARK   41  A    between atoms: _87  and  _88
REMARK   42  A    between atoms: _87  and  _90
REMARK   43  A    between atoms: _90  and  _91
REMARK   44  A    between atoms: _94  and  _96
REMARK   45  A    between atoms: _96  and  _97
REMARK   46  A    between atoms: _100  and  _102
REMARK   47  A    between atoms: _102  and  _103
REMARK   48  A    between atoms: _102  and  _105
REMARK   49  A    between atoms: _105  and  _106
REMARK   50  A    between atoms: _109  and  _111
REMARK   51  A    between atoms: _111  and  _112
REMARK   52  A    between atoms: _111  and  _114
REMARK   53  A    between atoms: _114  and  _115
REMARK   54  A    between atoms: _115  and  _116
REMARK   55  A    between atoms: _116  and  _117
REMARK   56  A    between atoms: _126  and  _128
REMARK   57  A    between atoms: _128  and  _129
REMARK   58  A    between atoms: _128  and  _131
REMARK   59  A    between atoms: _131  and  _132
REMARK   60  A    between atoms: _132  and  _133
REMARK   61  A    between atoms: _133  and  _134
REMARK   62  A    between atoms: _134  and  _135
REMARK   63  A    between atoms: _139  and  _141
REMARK   64  A    between atoms: _141  and  _142
REMARK   65  A    between atoms: _141  and  _144
REMARK   66  A    between atoms: _144  and  _145
REMARK   67  A    between atoms: _145  and  _146
REMARK   68  A    between atoms: _146  and  _148
REMARK   69  A    between atoms: _148  and  MG_262
REMARK   70  A    between atoms: _149  and  _151
REMARK   71  A    between atoms: _151  and  _152
REMARK   72  A    between atoms: _155  and  _157
REMARK   73  A    between atoms: _157  and  _158
REMARK   74  A    between atoms: _157  and  _160
REMARK   75  A    between atoms: _160  and  _161
REMARK   76  A    between atoms: _161  and  _162
REMARK   77  A    between atoms: _162  and  ZN_260
REMARK   78  A    between atoms: _164  and  _166
REMARK   79  A    between atoms: _166  and  _167
REMARK   80  A    between atoms: _166  and  _169
REMARK   81  A    between atoms: _169  and  _170
REMARK   82  A    between atoms: _170  and  _171
REMARK   83  A    between atoms: _171  and  _172
REMARK   84  A    between atoms: _172  and  _173
REMARK   85  A    between atoms: _177  and  _179
REMARK   86  A    between atoms: _179  and  _180
REMARK   87  A    between atoms: _179  and  _182
REMARK   88  A    between atoms: _182  and  _183
REMARK   89  A    between atoms: _187  and  ZN_260
REMARK   90  A    between atoms: _188  and  _190
REMARK   91  A    between atoms: _199  and  _200
REMARK   92  A    between atoms: _208  and  _210
REMARK   93  A    between atoms: _210  and  _211
REMARK   94  A    between atoms: _210  and  _213
REMARK   95  A    between atoms: _213  and  _214
REMARK   96  A    between atoms: _219  and  _221
REMARK   97  A    between atoms: _221  and  _222
REMARK   98  A    between atoms: _221  and  _224
REMARK   99  A    between atoms: _224  and  _225
REMARK  100  A    between atoms: _227  and  _229
REMARK  101  A    between atoms: _229  and  _230
REMARK  102  A    between atoms: _229  and  _232
REMARK  103  A    between atoms: _232  and  _233
REMARK  104  A    between atoms: _233  and  _234
REMARK  105  A    between atoms: _239  and  _241
REMARK  106  A    between atoms: _241  and  _242
REMARK  107  A    between atoms: _241  and  _244
REMARK  108  A    between atoms: _244  and  _245
REMARK  109  A    between atoms: _245  and  _246
REMARK  110  A    between atoms: _249  and  _251
REMARK  111  A    between atoms: _251  and  _252
REMARK  112  A    between atoms: _251  and  _254
REMARK  113  A    between atoms: _254  and  _255
REMARK  114  A    between atoms: _259  and  ZN_260
REMARK                            x       y       z     vdW  Elec       q    Type
REMARK                         _______ _______ _______ _____ _____    ______ ____
ROOT
ATOM      1  O   HOH     1      76.422  30.971  45.095  0.00  0.00    +0.000 OA
ENDROOT
TORSDOF 0
REMARK  Name = ../refined-set-2016/1ew9/1ew9_pocket.pdb
REMARK  114 active torsions:
REMARK  status: ('A' for Active; 'I' for Inactive)
REMARK    1  A    between atoms: _1  and  _3
REMARK    2  A    between atoms: _3  and  _4
REMARK    3  A    between atoms: _3  and  _6
REMARK    4  A    between atoms: _6  and  _7
REMARK    5  A    between atoms: _7  and  _8
REMARK    6  A    between atoms: _7  and  _9
REMARK    7  A    between atoms: _8  and  ZN_261
REMARK    8  A    between atoms: _9  and  MG_262
REMARK    9  A    between atoms: _10  and  _12
REMARK   10  A    between atoms: _12  and  _13
REMARK   11  A    between atoms: _15  and  _17
REMARK   12  A    between atoms: _17  and  _18
REMARK   13  A    between atoms: _17  and  _20
REMARK   14  A    between atoms: _23  and  _25
REMARK   15  A    between atoms: _25  and  _26
REMARK   16  A    between atoms: _25  and  _28
REMARK   17  A    between atoms: _28  and  _29
REMARK   18  A    between atoms: _32  and  _34
REMARK   19  A    between atoms: _34  and  _35
REMARK   20  A    between atoms: _34  and  _37
REMARK   21  A    between atoms: _37  and  _38
REMARK   22  A    between atoms: _41  and  _43
REMARK   23  A    between atoms: _43  and  _44
REMARK   24  A    between atoms: _43  and  _46
REMARK   25  A    between atoms: _46  and  _47
REMARK   26  A    between atoms: _49  and  _51
REMARK   27  A    between atoms: _51  and  _52
REMARK   28  A    between atoms: _55  and  _57
REMARK   29  A    between atoms: _57  and  _58
REMARK   30  A    between atoms: _61  and  _63
REMARK   31  A    between atoms: _63  and  _64
REMARK   32  A    between atoms: _63  and  _66
REMARK   33  A    between atoms: _66  and  _67
REMARK   34  A    between atoms: _69  and  _71
REMARK   35  A    between atoms: _71  and  _72
REMARK   36  A    between atoms: _71  and  _74
REMARK   37  A    between atoms: _74  and  _75
REMARK   38  A    between atoms: _80  and  _82
REMARK   39  A    between atoms: _82  and  _83
REMARK   40  A    between atoms: _85  and  _87
REMARK   41  A    between atoms: _87  and  _88
REMARK   42  A    between atoms: _87  and  _90
REMARK   43  A    between atoms: _90  and  _91
REMARK   44  A    between atoms: _94  and  _96
REMARK   45  A    between atoms: _96  and  _97
REMARK   46  A    between atoms: _100  and  _102
REMARK   47  A    between atoms: _102  and  _103
REMARK   48  A    between atoms: _102  and  _105
REMARK   49  A    between atoms: _105  and  _106
REMARK   50  A    between atoms: _109  and  _111
REMARK   51  A    between atoms: _111  and  _112
REMARK   52  A    between atoms: _111  and  _114
REMARK   53  A    between atoms: _114  and  _115
REMARK   54  A    between atoms: _115  and  _116
REMARK   55  A    between atoms: _116  and  _117
REMARK   56  A    between atoms: _126  and  _128
REMARK   57  A    between atoms: _128  and  _129
REMARK   58  A    between atoms: _128  and  _131
REMARK   59  A    between atoms: _131  and  _132
REMARK   60  A    between atoms: _132  and  _133
REMARK   61  A    between atoms: _133  and  _134
REMARK   62  A    between atoms: _134  and  _135
REMARK   63  A    between atoms: _139  and  _141
REMARK   64  A    between atoms: _141  and  _142
REMARK   65  A    between atoms: _141  and  _144
REMARK   66  A    between atoms: _144  and  _145
REMARK   67  A    between atoms: _145  and  _146
REMARK   68  A    between atoms: _146  and  _148
REMARK   69  A    between atoms: _148  and  MG_262
REMARK   70  A    between atoms: _149  and  _151
REMARK   71  A    between atoms: _151  and  _152
REMARK   72  A    between atoms: _155  and  _157
REMARK   73  A    between atoms: _157  and  _158
REMARK   74  A    between atoms: _157  and  _160
REMARK   75  A    between atoms: _160  and  _161
REMARK   76  A    between atoms: _161  and  _162
REMARK   77  A    between atoms: _162  and  ZN_260
REMARK   78  A    between atoms: _164  and  _166
REMARK   79  A    between atoms: _166  and  _167
REMARK   80  A    between atoms: _166  and  _169
REMARK   81  A    between atoms: _169  and  _170
REMARK   82  A    between atoms: _170  and  _171
REMARK   83  A    between atoms: _171  and  _172
REMARK   84  A    between atoms: _172  and  _173
REMARK   85  A    between atoms: _177  and  _179
REMARK   86  A    between atoms: _179  and  _180
REMARK   87  A    between atoms: _179  and  _182
REMARK   88  A    between atoms: _182  and  _183
REMARK   89  A    between atoms: _187  and  ZN_260
REMARK   90  A    between atoms: _188  and  _190
REMARK   91  A    between atoms: _199  and  _200
REMARK   92  A    between atoms: _208  and  _210
REMARK   93  A    between atoms: _210  and  _211
REMARK   94  A    between atoms: _210  and  _213
REMARK   95  A    between atoms: _213  and  _214
REMARK   96  A    between atoms: _219  and  _221
REMARK   97  A    between atoms: _221  and  _222
REMARK   98  A    between atoms: _221  and  _224
REMARK   99  A    between atoms: _224  and  _225
REMARK  100  A    between atoms: _227  and  _229
REMARK  101  A    between atoms: _229  and  _230
REMARK  102  A    between atoms: _229  and  _232
REMARK  103  A    between atoms: _232  and  _233
REMARK  104  A    between atoms: _233  and  _234
REMARK  105  A    between atoms: _239  and  _241
REMARK  106  A    between atoms: _241  and  _242
REMARK  107  A    between atoms: _241  and  _244
REMARK  108  A    between atoms: _244  and  _245
REMARK  109  A    between atoms: _245  and  _246
REMARK  110  A    between atoms: _249  and  _251
REMARK  111  A    between atoms: _251  and  _252
REMARK  112  A    between atoms: _251  and  _254
REMARK  113  A    between atoms: _254  and  _255
REMARK  114  A    between atoms: _259  and  ZN_260
REMARK                            x       y       z     vdW  Elec       q    Type
REMARK                         _______ _______ _______ _____ _____    ______ ____
ROOT
ATOM      1  O   HOH     1      75.001  42.178  43.989  0.00  0.00    +0.000 OA
ENDROOT
TORSDOF 0
REMARK  Name = ../refined-set-2016/1ew9/1ew9_pocket.pdb
REMARK  114 active torsions:
REMARK  status: ('A' for Active; 'I' for Inactive)
REMARK    1  A    between atoms: _1  and  _3
REMARK    2  A    between atoms: _3  and  _4
REMARK    3  A    between atoms: _3  and  _6
REMARK    4  A    between atoms: _6  and  _7
REMARK    5  A    between atoms: _7  and  _8
REMARK    6  A    between atoms: _7  and  _9
REMARK    7  A    between atoms: _8  and  ZN_261
REMARK    8  A    between atoms: _9  and  MG_262
REMARK    9  A    between atoms: _10  and  _12
REMARK   10  A    between atoms: _12  and  _13
REMARK   11  A    between atoms: _15  and  _17
REMARK   12  A    between atoms: _17  and  _18
REMARK   13  A    between atoms: _17  and  _20
REMARK   14  A    between atoms: _23  and  _25
REMARK   15  A    between atoms: _25  and  _26
REMARK   16  A    between atoms: _25  and  _28
REMARK   17  A    between atoms: _28  and  _29
REMARK   18  A    between atoms: _32  and  _34
REMARK   19  A    between atoms: _34  and  _35
REMARK   20  A    between atoms: _34  and  _37
REMARK   21  A    between atoms: _37  and  _38
REMARK   22  A    between atoms: _41  and  _43
REMARK   23  A    between atoms: _43  and  _44
REMARK   24  A    between atoms: _43  and  _46
REMARK   25  A    between atoms: _46  and  _47
REMARK   26  A    between atoms: _49  and  _51
REMARK   27  A    between atoms: _51  and  _52
REMARK   28  A    between atoms: _55  and  _57
REMARK   29  A    between atoms: _57  and  _58
REMARK   30  A    between atoms: _61  and  _63
REMARK   31  A    between atoms: _63  and  _64
REMARK   32  A    between atoms: _63  and  _66
REMARK   33  A    between atoms: _66  and  _67
REMARK   34  A    between atoms: _69  and  _71
REMARK   35  A    between atoms: _71  and  _72
REMARK   36  A    between atoms: _71  and  _74
REMARK   37  A    between atoms: _74  and  _75
REMARK   38  A    between atoms: _80  and  _82
REMARK   39  A    between atoms: _82  and  _83
REMARK   40  A    between atoms: _85  and  _87
REMARK   41  A    between atoms: _87  and  _88
REMARK   42  A    between atoms: _87  and  _90
REMARK   43  A    between atoms: _90  and  _91
REMARK   44  A    between atoms: _94  and  _96
REMARK   45  A    between atoms: _96  and  _97
REMARK   46  A    between atoms: _100  and  _102
REMARK   47  A    between atoms: _102  and  _103
REMARK   48  A    between atoms: _102  and  _105
REMARK   49  A    between atoms: _105  and  _106
REMARK   50  A    between atoms: _109  and  _111
REMARK   51  A    between atoms: _111  and  _112
REMARK   52  A    between atoms: _111  and  _114
REMARK   53  A    between atoms: _114  and  _115
REMARK   54  A    between atoms: _115  and  _116
REMARK   55  A    between atoms: _116  and  _117
REMARK   56  A    between atoms: _126  and  _128
REMARK   57  A    between atoms: _128  and  _129
REMARK   58  A    between atoms: _128  and  _131
REMARK   59  A    between atoms: _131  and  _132
REMARK   60  A    between atoms: _132  and  _133
REMARK   61  A    between atoms: _133  and  _134
REMARK   62  A    between atoms: _134  and  _135
REMARK   63  A    between atoms: _139  and  _141
REMARK   64  A    between atoms: _141  and  _142
REMARK   65  A    between atoms: _141  and  _144
REMARK   66  A    between atoms: _144  and  _145
REMARK   67  A    between atoms: _145  and  _146
REMARK   68  A    between atoms: _146  and  _148
REMARK   69  A    between atoms: _148  and  MG_262
REMARK   70  A    between atoms: _149  and  _151
REMARK   71  A    between atoms: _151  and  _152
REMARK   72  A    between atoms: _155  and  _157
REMARK   73  A    between atoms: _157  and  _158
REMARK   74  A    between atoms: _157  and  _160
REMARK   75  A    between atoms: _160  and  _161
REMARK   76  A    between atoms: _161  and  _162
REMARK   77  A    between atoms: _162  and  ZN_260
REMARK   78  A    between atoms: _164  and  _166
REMARK   79  A    between atoms: _166  and  _167
REMARK   80  A    between atoms: _166  and  _169
REMARK   81  A    between atoms: _169  and  _170
REMARK   82  A    between atoms: _170  and  _171
REMARK   83  A    between atoms: _171  and  _172
REMARK   84  A    between atoms: _172  and  _173
REMARK   85  A    between atoms: _177  and  _179
REMARK   86  A    between atoms: _179  and  _180
REMARK   87  A    between atoms: _179  and  _182
REMARK   88  A    between atoms: _182  and  _183
REMARK   89  A    between atoms: _187  and  ZN_260
REMARK   90  A    between atoms: _188  and  _190
REMARK   91  A    between atoms: _199  and  _200
REMARK   92  A    between atoms: _208  and  _210
REMARK   93  A    between atoms: _210  and  _211
REMARK   94  A    between atoms: _210  and  _213
REMARK   95  A    between atoms: _213  and  _214
REMARK   96  A    between atoms: _219  and  _221
REMARK   97  A    between atoms: _221  and  _222
REMARK   98  A    between atoms: _221  and  _224
REMARK   99  A    between atoms: _224  and  _225
REMARK  100  A    between atoms: _227  and  _229
REMARK  101  A    between atoms: _229  and  _230
REMARK  102  A    between atoms: _229  and  _232
REMARK  103  A    between atoms: _232  and  _233
REMARK  104  A    between atoms: _233  and  _234
REMARK  105  A    between atoms: _239  and  _241
REMARK  106  A    between atoms: _241  and  _242
REMARK  107  A    between atoms: _241  and  _244
REMARK  108  A    between atoms: _244  and  _245
REMARK  109  A    between atoms: _245  and  _246
REMARK  110  A    between atoms: _249  and  _251
REMARK  111  A    between atoms: _251  and  _252
REMARK  112  A    between atoms: _251  and  _254
REMARK  113  A    between atoms: _254  and  _255
REMARK  114  A    between atoms: _259  and  ZN_260
REMARK                            x       y       z     vdW  Elec       q    Type
REMARK                         _______ _______ _______ _____ _____    ______ ____
ROOT
ATOM      1  O   HOH     1      74.877  42.372  41.713  0.00  0.00    +0.000 OA
ENDROOT
TORSDOF 0
REMARK  Name = ../refined-set-2016/1ew9/1ew9_pocket.pdb
REMARK  114 active torsions:
REMARK  status: ('A' for Active; 'I' for Inactive)
REMARK    1  A    between atoms: _1  and  _3
REMARK    2  A    between atoms: _3  and  _4
REMARK    3  A    between atoms: _3  and  _6
REMARK    4  A    between atoms: _6  and  _7
REMARK    5  A    between atoms: _7  and  _8
REMARK    6  A    between atoms: _7  and  _9
REMARK    7  A    between atoms: _8  and  ZN_261
REMARK    8  A    between atoms: _9  and  MG_262
REMARK    9  A    between atoms: _10  and  _12
REMARK   10  A    between atoms: _12  and  _13
REMARK   11  A    between atoms: _15  and  _17
REMARK   12  A    between atoms: _17  and  _18
REMARK   13  A    between atoms: _17  and  _20
REMARK   14  A    between atoms: _23  and  _25
REMARK   15  A    between atoms: _25  and  _26
REMARK   16  A    between atoms: _25  and  _28
REMARK   17  A    between atoms: _28  and  _29
REMARK   18  A    between atoms: _32  and  _34
REMARK   19  A    between atoms: _34  and  _35
REMARK   20  A    between atoms: _34  and  _37
REMARK   21  A    between atoms: _37  and  _38
REMARK   22  A    between atoms: _41  and  _43
REMARK   23  A    between atoms: _43  and  _44
REMARK   24  A    between atoms: _43  and  _46
REMARK   25  A    between atoms: _46  and  _47
REMARK   26  A    between atoms: _49  and  _51
REMARK   27  A    between atoms: _51  and  _52
REMARK   28  A    between atoms: _55  and  _57
REMARK   29  A    between atoms: _57  and  _58
REMARK   30  A    between atoms: _61  and  _63
REMARK   31  A    between atoms: _63  and  _64
REMARK   32  A    between atoms: _63  and  _66
REMARK   33  A    between atoms: _66  and  _67
REMARK   34  A    between atoms: _69  and  _71
REMARK   35  A    between atoms: _71  and  _72
REMARK   36  A    between atoms: _71  and  _74
REMARK   37  A    between atoms: _74  and  _75
REMARK   38  A    between atoms: _80  and  _82
REMARK   39  A    between atoms: _82  and  _83
REMARK   40  A    between atoms: _85  and  _87
REMARK   41  A    between atoms: _87  and  _88
REMARK   42  A    between atoms: _87  and  _90
REMARK   43  A    between atoms: _90  and  _91
REMARK   44  A    between atoms: _94  and  _96
REMARK   45  A    between atoms: _96  and  _97
REMARK   46  A    between atoms: _100  and  _102
REMARK   47  A    between atoms: _102  and  _103
REMARK   48  A    between atoms: _102  and  _105
REMARK   49  A    between atoms: _105  and  _106
REMARK   50  A    between atoms: _109  and  _111
REMARK   51  A    between atoms: _111  and  _112
REMARK   52  A    between atoms: _111  and  _114
REMARK   53  A    between atoms: _114  and  _115
REMARK   54  A    between atoms: _115  and  _116
REMARK   55  A    between atoms: _116  and  _117
REMARK   56  A    between atoms: _126  and  _128
REMARK   57  A    between atoms: _128  and  _129
REMARK   58  A    between atoms: _128  and  _131
REMARK   59  A    between atoms: _131  and  _132
REMARK   60  A    between atoms: _132  and  _133
REMARK   61  A    between atoms: _133  and  _134
REMARK   62  A    between atoms: _134  and  _135
REMARK   63  A    between atoms: _139  and  _141
REMARK   64  A    between atoms: _141  and  _142
REMARK   65  A    between atoms: _141  and  _144
REMARK   66  A    between atoms: _144  and  _145
REMARK   67  A    between atoms: _145  and  _146
REMARK   68  A    between atoms: _146  and  _148
REMARK   69  A    between atoms: _148  and  MG_262
REMARK   70  A    between atoms: _149  and  _151
REMARK   71  A    between atoms: _151  and  _152
REMARK   72  A    between atoms: _155  and  _157
REMARK   73  A    between atoms: _157  and  _158
REMARK   74  A    between atoms: _157  and  _160
REMARK   75  A    between atoms: _160  and  _161
REMARK   76  A    between atoms: _161  and  _162
REMARK   77  A    between atoms: _162  and  ZN_260
REMARK   78  A    between atoms: _164  and  _166
REMARK   79  A    between atoms: _166  and  _167
REMARK   80  A    between atoms: _166  and  _169
REMARK   81  A    between atoms: _169  and  _170
REMARK   82  A    between atoms: _170  and  _171
REMARK   83  A    between atoms: _171  and  _172
REMARK   84  A    between atoms: _172  and  _173
REMARK   85  A    between atoms: _177  and  _179
REMARK   86  A    between atoms: _179  and  _180
REMARK   87  A    between atoms: _179  and  _182
REMARK   88  A    between atoms: _182  and  _183
REMARK   89  A    between atoms: _187  and  ZN_260
REMARK   90  A    between atoms: _188  and  _190
REMARK   91  A    between atoms: _199  and  _200
REMARK   92  A    between atoms: _208  and  _210
REMARK   93  A    between atoms: _210  and  _211
REMARK   94  A    between atoms: _210  and  _213
REMARK   95  A    between atoms: _213  and  _214
REMARK   96  A    between atoms: _219  and  _221
REMARK   97  A    between atoms: _221  and  _222
REMARK   98  A    between atoms: _221  and  _224
REMARK   99  A    between atoms: _224  and  _225
REMARK  100  A    between atoms: _227  and  _229
REMARK  101  A    between atoms: _229  and  _230
REMARK  102  A    between atoms: _229  and  _232
REMARK  103  A    between atoms: _232  and  _233
REMARK  104  A    between atoms: _233  and  _234
REMARK  105  A    between atoms: _239  and  _241
REMARK  106  A    between atoms: _241  and  _242
REMARK  107  A    between atoms: _241  and  _244
REMARK  108  A    between atoms: _244  and  _245
REMARK  109  A    between atoms: _245  and  _246
REMARK  110  A    between atoms: _249  and  _251
REMARK  111  A    between atoms: _251  and  _252
REMARK  112  A    between atoms: _251  and  _254
REMARK  113  A    between atoms: _254  and  _255
REMARK  114  A    between atoms: _259  and  ZN_260
REMARK                            x       y       z     vdW  Elec       q    Type
REMARK                         _______ _______ _______ _____ _____    ______ ____
ROOT
ATOM      1  O   HOH     1      74.721  45.272  40.964  0.00  0.00    +0.000 OA
ENDROOT
TORSDOF 0
REMARK  Name = ../refined-set-2016/1ew9/1ew9_pocket.pdb
REMARK  114 active torsions:
REMARK  status: ('A' for Active; 'I' for Inactive)
REMARK    1  A    between atoms: _1  and  _3
REMARK    2  A    between atoms: _3  and  _4
REMARK    3  A    between atoms: _3  and  _6
REMARK    4  A    between atoms: _6  and  _7
REMARK    5  A    between atoms: _7  and  _8
REMARK    6  A    between atoms: _7  and  _9
REMARK    7  A    between atoms: _8  and  ZN_261
REMARK    8  A    between atoms: _9  and  MG_262
REMARK    9  A    between atoms: _10  and  _12
REMARK   10  A    between atoms: _12  and  _13
REMARK   11  A    between atoms: _15  and  _17
REMARK   12  A    between atoms: _17  and  _18
REMARK   13  A    between atoms: _17  and  _20
REMARK   14  A    between atoms: _23  and  _25
REMARK   15  A    between atoms: _25  and  _26
REMARK   16  A    between atoms: _25  and  _28
REMARK   17  A    between atoms: _28  and  _29
REMARK   18  A    between atoms: _32  and  _34
REMARK   19  A    between atoms: _34  and  _35
REMARK   20  A    between atoms: _34  and  _37
REMARK   21  A    between atoms: _37  and  _38
REMARK   22  A    between atoms: _41  and  _43
REMARK   23  A    between atoms: _43  and  _44
REMARK   24  A    between atoms: _43  and  _46
REMARK   25  A    between atoms: _46  and  _47
REMARK   26  A    between atoms: _49  and  _51
REMARK   27  A    between atoms: _51  and  _52
REMARK   28  A    between atoms: _55  and  _57
REMARK   29  A    between atoms: _57  and  _58
REMARK   30  A    between atoms: _61  and  _63
REMARK   31  A    between atoms: _63  and  _64
REMARK   32  A    between atoms: _63  and  _66
REMARK   33  A    between atoms: _66  and  _67
REMARK   34  A    between atoms: _69  and  _71
REMARK   35  A    between atoms: _71  and  _72
REMARK   36  A    between atoms: _71  and  _74
REMARK   37  A    between atoms: _74  and  _75
REMARK   38  A    between atoms: _80  and  _82
REMARK   39  A    between atoms: _82  and  _83
REMARK   40  A    between atoms: _85  and  _87
REMARK   41  A    between atoms: _87  and  _88
REMARK   42  A    between atoms: _87  and  _90
REMARK   43  A    between atoms: _90  and  _91
REMARK   44  A    between atoms: _94  and  _96
REMARK   45  A    between atoms: _96  and  _97
REMARK   46  A    between atoms: _100  and  _102
REMARK   47  A    between atoms: _102  and  _103
REMARK   48  A    between atoms: _102  and  _105
REMARK   49  A    between atoms: _105  and  _106
REMARK   50  A    between atoms: _109  and  _111
REMARK   51  A    between atoms: _111  and  _112
REMARK   52  A    between atoms: _111  and  _114
REMARK   53  A    between atoms: _114  and  _115
REMARK   54  A    between atoms: _115  and  _116
REMARK   55  A    between atoms: _116  and  _117
REMARK   56  A    between atoms: _126  and  _128
REMARK   57  A    between atoms: _128  and  _129
REMARK   58  A    between atoms: _128  and  _131
REMARK   59  A    between atoms: _131  and  _132
REMARK   60  A    between atoms: _132  and  _133
REMARK   61  A    between atoms: _133  and  _134
REMARK   62  A    between atoms: _134  and  _135
REMARK   63  A    between atoms: _139  and  _141
REMARK   64  A    between atoms: _141  and  _142
REMARK   65  A    between atoms: _141  and  _144
REMARK   66  A    between atoms: _144  and  _145
REMARK   67  A    between atoms: _145  and  _146
REMARK   68  A    between atoms: _146  and  _148
REMARK   69  A    between atoms: _148  and  MG_262
REMARK   70  A    between atoms: _149  and  _151
REMARK   71  A    between atoms: _151  and  _152
REMARK   72  A    between atoms: _155  and  _157
REMARK   73  A    between atoms: _157  and  _158
REMARK   74  A    between atoms: _157  and  _160
REMARK   75  A    between atoms: _160  and  _161
REMARK   76  A    between atoms: _161  and  _162
REMARK   77  A    between atoms: _162  and  ZN_260
REMARK   78  A    between atoms: _164  and  _166
REMARK   79  A    between atoms: _166  and  _167
REMARK   80  A    between atoms: _166  and  _169
REMARK   81  A    between atoms: _169  and  _170
REMARK   82  A    between atoms: _170  and  _171
REMARK   83  A    between atoms: _171  and  _172
REMARK   84  A    between atoms: _172  and  _173
REMARK   85  A    between atoms: _177  and  _179
REMARK   86  A    between atoms: _179  and  _180
REMARK   87  A    between atoms: _179  and  _182
REMARK   88  A    between atoms: _182  and  _183
REMARK   89  A    between atoms: _187  and  ZN_260
REMARK   90  A    between atoms: _188  and  _190
REMARK   91  A    between atoms: _199  and  _200
REMARK   92  A    between atoms: _208  and  _210
REMARK   93  A    between atoms: _210  and  _211
REMARK   94  A    between atoms: _210  and  _213
REMARK   95  A    between atoms: _213  and  _214
REMARK   96  A    between atoms: _219  and  _221
REMARK   97  A    between atoms: _221  and  _222
REMARK   98  A    between atoms: _221  and  _224
REMARK   99  A    between atoms: _224  and  _225
REMARK  100  A    between atoms: _227  and  _229
REMARK  101  A    between atoms: _229  and  _230
REMARK  102  A    between atoms: _229  and  _232
REMARK  103  A    between atoms: _232  and  _233
REMARK  104  A    between atoms: _233  and  _234
REMARK  105  A    between atoms: _239  and  _241
REMARK  106  A    between atoms: _241  and  _242
REMARK  107  A    between atoms: _241  and  _244
REMARK  108  A    between atoms: _244  and  _245
REMARK  109  A    between atoms: _245  and  _246
REMARK  110  A    between atoms: _249  and  _251
REMARK  111  A    between atoms: _251  and  _252
REMARK  112  A    between atoms: _251  and  _254
REMARK  113  A    between atoms: _254  and  _255
REMARK  114  A    between atoms: _259  and  ZN_260
REMARK                            x       y       z     vdW  Elec       q    Type
REMARK                         _______ _______ _______ _____ _____    ______ ____
ROOT
ATOM      1  O   HOH     1      71.982  43.728  41.419  0.00  0.00    +0.000 OA
ENDROOT
TORSDOF 0
REMARK  Name = ../refined-set-2016/1ew9/1ew9_pocket.pdb
REMARK  114 active torsions:
REMARK  status: ('A' for Active; 'I' for Inactive)
REMARK    1  A    between atoms: _1  and  _3
REMARK    2  A    between atoms: _3  and  _4
REMARK    3  A    between atoms: _3  and  _6
REMARK    4  A    between atoms: _6  and  _7
REMARK    5  A    between atoms: _7  and  _8
REMARK    6  A    between atoms: _7  and  _9
REMARK    7  A    between atoms: _8  and  ZN_261
REMARK    8  A    between atoms: _9  and  MG_262
REMARK    9  A    between atoms: _10  and  _12
REMARK   10  A    between atoms: _12  and  _13
REMARK   11  A    between atoms: _15  and  _17
REMARK   12  A    between atoms: _17  and  _18
REMARK   13  A    between atoms: _17  and  _20
REMARK   14  A    between atoms: _23  and  _25
REMARK   15  A    between atoms: _25  and  _26
REMARK   16  A    between atoms: _25  and  _28
REMARK   17  A    between atoms: _28  and  _29
REMARK   18  A    between atoms: _32  and  _34
REMARK   19  A    between atoms: _34  and  _35
REMARK   20  A    between atoms: _34  and  _37
REMARK   21  A    between atoms: _37  and  _38
REMARK   22  A    between atoms: _41  and  _43
REMARK   23  A    between atoms: _43  and  _44
REMARK   24  A    between atoms: _43  and  _46
REMARK   25  A    between atoms: _46  and  _47
REMARK   26  A    between atoms: _49  and  _51
REMARK   27  A    between atoms: _51  and  _52
REMARK   28  A    between atoms: _55  and  _57
REMARK   29  A    between atoms: _57  and  _58
REMARK   30  A    between atoms: _61  and  _63
REMARK   31  A    between atoms: _63  and  _64
REMARK   32  A    between atoms: _63  and  _66
REMARK   33  A    between atoms: _66  and  _67
REMARK   34  A    between atoms: _69  and  _71
REMARK   35  A    between atoms: _71  and  _72
REMARK   36  A    between atoms: _71  and  _74
REMARK   37  A    between atoms: _74  and  _75
REMARK   38  A    between atoms: _80  and  _82
REMARK   39  A    between atoms: _82  and  _83
REMARK   40  A    between atoms: _85  and  _87
REMARK   41  A    between atoms: _87  and  _88
REMARK   42  A    between atoms: _87  and  _90
REMARK   43  A    between atoms: _90  and  _91
REMARK   44  A    between atoms: _94  and  _96
REMARK   45  A    between atoms: _96  and  _97
REMARK   46  A    between atoms: _100  and  _102
REMARK   47  A    between atoms: _102  and  _103
REMARK   48  A    between atoms: _102  and  _105
REMARK   49  A    between atoms: _105  and  _106
REMARK   50  A    between atoms: _109  and  _111
REMARK   51  A    between atoms: _111  and  _112
REMARK   52  A    between atoms: _111  and  _114
REMARK   53  A    between atoms: _114  and  _115
REMARK   54  A    between atoms: _115  and  _116
REMARK   55  A    between atoms: _116  and  _117
REMARK   56  A    between atoms: _126  and  _128
REMARK   57  A    between atoms: _128  and  _129
REMARK   58  A    between atoms: _128  and  _131
REMARK   59  A    between atoms: _131  and  _132
REMARK   60  A    between atoms: _132  and  _133
REMARK   61  A    between atoms: _133  and  _134
REMARK   62  A    between atoms: _134  and  _135
REMARK   63  A    between atoms: _139  and  _141
REMARK   64  A    between atoms: _141  and  _142
REMARK   65  A    between atoms: _141  and  _144
REMARK   66  A    between atoms: _144  and  _145
REMARK   67  A    between atoms: _145  and  _146
REMARK   68  A    between atoms: _146  and  _148
REMARK   69  A    between atoms: _148  and  MG_262
REMARK   70  A    between atoms: _149  and  _151
REMARK   71  A    between atoms: _151  and  _152
REMARK   72  A    between atoms: _155  and  _157
REMARK   73  A    between atoms: _157  and  _158
REMARK   74  A    between atoms: _157  and  _160
REMARK   75  A    between atoms: _160  and  _161
REMARK   76  A    between atoms: _161  and  _162
REMARK   77  A    between atoms: _162  and  ZN_260
REMARK   78  A    between atoms: _164  and  _166
REMARK   79  A    between atoms: _166  and  _167
REMARK   80  A    between atoms: _166  and  _169
REMARK   81  A    between atoms: _169  and  _170
REMARK   82  A    between atoms: _170  and  _171
REMARK   83  A    between atoms: _171  and  _172
REMARK   84  A    between atoms: _172  and  _173
REMARK   85  A    between atoms: _177  and  _179
REMARK   86  A    between atoms: _179  and  _180
REMARK   87  A    between atoms: _179  and  _182
REMARK   88  A    between atoms: _182  and  _183
REMARK   89  A    between atoms: _187  and  ZN_260
REMARK   90  A    between atoms: _188  and  _190
REMARK   91  A    between atoms: _199  and  _200
REMARK   92  A    between atoms: _208  and  _210
REMARK   93  A    between atoms: _210  and  _211
REMARK   94  A    between atoms: _210  and  _213
REMARK   95  A    between atoms: _213  and  _214
REMARK   96  A    between atoms: _219  and  _221
REMARK   97  A    between atoms: _221  and  _222
REMARK   98  A    between atoms: _221  and  _224
REMARK   99  A    between atoms: _224  and  _225
REMARK  100  A    between atoms: _227  and  _229
REMARK  101  A    between atoms: _229  and  _230
REMARK  102  A    between atoms: _229  and  _232
REMARK  103  A    between atoms: _232  and  _233
REMARK  104  A    between atoms: _233  and  _234
REMARK  105  A    between atoms: _239  and  _241
REMARK  106  A    between atoms: _241  and  _242
REMARK  107  A    between atoms: _241  and  _244
REMARK  108  A    between atoms: _244  and  _245
REMARK  109  A    between atoms: _245  and  _246
REMARK  110  A    between atoms: _249  and  _251
REMARK  111  A    between atoms: _251  and  _252
REMARK  112  A    between atoms: _251  and  _254
REMARK  113  A    between atoms: _254  and  _255
REMARK  114  A    between atoms: _259  and  ZN_260
REMARK                            x       y       z     vdW  Elec       q    Type
REMARK                         _______ _______ _______ _____ _____    ______ ____
ROOT
ATOM      1  O   HOH     1      71.583  28.556  44.309  0.00  0.00    +0.000 OA
ENDROOT
TORSDOF 0
