REMARK  Name = ../refined-set-2016/1bai/1bai_pocket.pdb
REMARK  228 active torsions:
REMARK  status: ('A' for Active; 'I' for Inactive)
REMARK    1  A    between atoms: _1  and  _3
REMARK    2  A    between atoms: _3  and  _4
REMARK    3  A    between atoms: _3  and  _6
REMARK    4  A    between atoms: _6  and  _7
REMARK    5  A    between atoms: _7  and  _8
REMARK    6  A    between atoms: _8  and  _9
REMARK    7  A    between atoms: _18  and  _20
REMARK    8  A    between atoms: _20  and  _21
REMARK    9  A    between atoms: _20  and  _23
REMARK   10  A    between atoms: _23  and  _24
REMARK   11  A    between atoms: _27  and  _29
REMARK   12  A    between atoms: _29  and  _30
REMARK   13  A    between atoms: _29  and  _32
REMARK   14  A    between atoms: _32  and  _33
REMARK   15  A    between atoms: _36  and  _38
REMARK   16  A    between atoms: _38  and  _39
REMARK   17  A    between atoms: _38  and  _41
REMARK   18  A    between atoms: _41  and  _42
REMARK   19  A    between atoms: _45  and  _47
REMARK   20  A    between atoms: _47  and  _48
REMARK   21  A    between atoms: _47  and  _50
REMARK   22  A    between atoms: _50  and  _51
REMARK   23  A    between atoms: _54  and  _56
REMARK   24  A    between atoms: _56  and  _57
REMARK   25  A    between atoms: _56  and  _59
REMARK   26  A    between atoms: _59  and  _60
REMARK   27  A    between atoms: _63  and  _65
REMARK   28  A    between atoms: _65  and  _66
REMARK   29  A    between atoms: _68  and  _70
REMARK   30  A    between atoms: _70  and  _71
REMARK   31  A    between atoms: _74  and  _76
REMARK   32  A    between atoms: _76  and  _77
REMARK   33  A    between atoms: _76  and  _79
REMARK   34  A    between atoms: _79  and  _80
REMARK   35  A    between atoms: _83  and  _85
REMARK   36  A    between atoms: _85  and  _86
REMARK   37  A    between atoms: _85  and  _88
REMARK   38  A    between atoms: _88  and  _89
REMARK   39  A    between atoms: _92  and  _94
REMARK   40  A    between atoms: _94  and  _95
REMARK   41  A    between atoms: _94  and  _97
REMARK   42  A    between atoms: _97  and  _98
REMARK   43  A    between atoms: _101  and  _103
REMARK   44  A    between atoms: _103  and  _104
REMARK   45  A    between atoms: _103  and  _106
REMARK   46  A    between atoms: _109  and  _111
REMARK   47  A    between atoms: _111  and  _112
REMARK   48  A    between atoms: _115  and  _117
REMARK   49  A    between atoms: _117  and  _118
REMARK   50  A    between atoms: _121  and  _123
REMARK   51  A    between atoms: _123  and  _124
REMARK   52  A    between atoms: _123  and  _126
REMARK   53  A    between atoms: _126  and  _127
REMARK   54  A    between atoms: _133  and  _134
REMARK   55  A    between atoms: _139  and  _141
REMARK   56  A    between atoms: _141  and  _142
REMARK   57  A    between atoms: _141  and  _144
REMARK   58  A    between atoms: _144  and  _145
REMARK   59  A    between atoms: _145  and  _146
REMARK   60  A    between atoms: _151  and  _153
REMARK   61  A    between atoms: _153  and  _154
REMARK   62  A    between atoms: _153  and  _156
REMARK   63  A    between atoms: _156  and  _157
REMARK   64  A    between atoms: _160  and  _162
REMARK   65  A    between atoms: _162  and  _163
REMARK   66  A    between atoms: _162  and  _165
REMARK   67  A    between atoms: _165  and  _166
REMARK   68  A    between atoms: _171  and  _173
REMARK   69  A    between atoms: _173  and  _174
REMARK   70  A    between atoms: _176  and  _178
REMARK   71  A    between atoms: _178  and  _179
REMARK   72  A    between atoms: _178  and  _181
REMARK   73  A    between atoms: _181  and  _182
REMARK   74  A    between atoms: _185  and  _187
REMARK   75  A    between atoms: _187  and  _188
REMARK   76  A    between atoms: _190  and  _192
REMARK   77  A    between atoms: _192  and  _193
REMARK   78  A    between atoms: _195  and  _197
REMARK   79  A    between atoms: _197  and  _198
REMARK   80  A    between atoms: _200  and  _202
REMARK   81  A    between atoms: _202  and  _203
REMARK   82  A    between atoms: _202  and  _205
REMARK   83  A    between atoms: _205  and  _206
REMARK   84  A    between atoms: _209  and  _211
REMARK   85  A    between atoms: _211  and  _212
REMARK   86  A    between atoms: _211  and  _214
REMARK   87  A    between atoms: _217  and  _219
REMARK   88  A    between atoms: _219  and  _220
REMARK   89  A    between atoms: _219  and  _222
REMARK   90  A    between atoms: _222  and  _223
REMARK   91  A    between atoms: _226  and  _228
REMARK   92  A    between atoms: _228  and  _229
REMARK   93  A    between atoms: _232  and  _234
REMARK   94  A    between atoms: _234  and  _235
REMARK   95  A    between atoms: _234  and  _237
REMARK   96  A    between atoms: _237  and  _238
REMARK   97  A    between atoms: _242  and  _243
REMARK   98  A    between atoms: _248  and  _250
REMARK   99  A    between atoms: _250  and  _251
REMARK  100  A    between atoms: _250  and  _253
REMARK  101  A    between atoms: _256  and  _258
REMARK  102  A    between atoms: _258  and  _259
REMARK  103  A    between atoms: _258  and  _261
REMARK  104  A    between atoms: _261  and  _262
REMARK  105  A    between atoms: _267  and  _269
REMARK  106  A    between atoms: _269  and  _270
REMARK  107  A    between atoms: _269  and  _272
REMARK  108  A    between atoms: _272  and  _273
REMARK  109  A    between atoms: _276  and  _278
REMARK  110  A    between atoms: _278  and  _279
REMARK  111  A    between atoms: _278  and  _281
REMARK  112  A    between atoms: _281  and  _282
REMARK  113  A    between atoms: _285  and  _287
REMARK  114  A    between atoms: _287  and  _288
REMARK  115  A    between atoms: _290  and  _292
REMARK  116  A    between atoms: _292  and  _293
REMARK  117  A    between atoms: _292  and  _295
REMARK  118  A    between atoms: _295  and  _296
REMARK  119  A    between atoms: _296  and  _297
REMARK  120  A    between atoms: _297  and  _298
REMARK  121  A    between atoms: _307  and  _309
REMARK  122  A    between atoms: _309  and  _310
REMARK  123  A    between atoms: _309  and  _312
REMARK  124  A    between atoms: _312  and  _313
REMARK  125  A    between atoms: _316  and  _318
REMARK  126  A    between atoms: _318  and  _319
REMARK  127  A    between atoms: _318  and  _321
REMARK  128  A    between atoms: _321  and  _322
REMARK  129  A    between atoms: _327  and  _329
REMARK  130  A    between atoms: _329  and  _330
REMARK  131  A    between atoms: _329  and  _332
REMARK  132  A    between atoms: _332  and  _333
REMARK  133  A    between atoms: _333  and  _334
REMARK  134  A    between atoms: _334  and  _335
REMARK  135  A    between atoms: _344  and  _346
REMARK  136  A    between atoms: _346  and  _347
REMARK  137  A    between atoms: _346  and  _349
REMARK  138  A    between atoms: _349  and  _350
REMARK  139  A    between atoms: _353  and  _355
REMARK  140  A    between atoms: _355  and  _356
REMARK  141  A    between atoms: _355  and  _358
REMARK  142  A    between atoms: _358  and  _359
REMARK  143  A    between atoms: _362  and  _364
REMARK  144  A    between atoms: _364  and  _365
REMARK  145  A    between atoms: _364  and  _367
REMARK  146  A    between atoms: _367  and  _368
REMARK  147  A    between atoms: _371  and  _373
REMARK  148  A    between atoms: _373  and  _374
REMARK  149  A    between atoms: _373  and  _376
REMARK  150  A    between atoms: _376  and  _377
REMARK  151  A    between atoms: _380  and  _382
REMARK  152  A    between atoms: _382  and  _383
REMARK  153  A    between atoms: _382  and  _385
REMARK  154  A    between atoms: _385  and  _386
REMARK  155  A    between atoms: _389  and  _391
REMARK  156  A    between atoms: _391  and  _392
REMARK  157  A    between atoms: _394  and  _396
REMARK  158  A    between atoms: _396  and  _397
REMARK  159  A    between atoms: _400  and  _402
REMARK  160  A    between atoms: _402  and  _403
REMARK  161  A    between atoms: _402  and  _405
REMARK  162  A    between atoms: _405  and  _406
REMARK  163  A    between atoms: _409  and  _411
REMARK  164  A    between atoms: _411  and  _412
REMARK  165  A    between atoms: _411  and  _414
REMARK  166  A    between atoms: _414  and  _415
REMARK  167  A    between atoms: _418  and  _420
REMARK  168  A    between atoms: _420  and  _421
REMARK  169  A    between atoms: _420  and  _423
REMARK  170  A    between atoms: _423  and  _424
REMARK  171  A    between atoms: _427  and  _429
REMARK  172  A    between atoms: _429  and  _430
REMARK  173  A    between atoms: _429  and  _432
REMARK  174  A    between atoms: _435  and  _437
REMARK  175  A    between atoms: _437  and  _438
REMARK  176  A    between atoms: _437  and  _440
REMARK  177  A    between atoms: _440  and  _441
REMARK  178  A    between atoms: _441  and  _442
REMARK  179  A    between atoms: _447  and  _449
REMARK  180  A    between atoms: _449  and  _450
REMARK  181  A    between atoms: _449  and  _452
REMARK  182  A    between atoms: _452  and  _453
REMARK  183  A    between atoms: _456  and  _458
REMARK  184  A    between atoms: _458  and  _459
REMARK  185  A    between atoms: _458  and  _461
REMARK  186  A    between atoms: _461  and  _462
REMARK  187  A    between atoms: _467  and  _469
REMARK  188  A    between atoms: _469  and  _470
REMARK  189  A    between atoms: _472  and  _474
REMARK  190  A    between atoms: _474  and  _475
REMARK  191  A    between atoms: _474  and  _477
REMARK  192  A    between atoms: _477  and  _478
REMARK  193  A    between atoms: _481  and  _483
REMARK  194  A    between atoms: _483  and  _484
REMARK  195  A    between atoms: _486  and  _488
REMARK  196  A    between atoms: _488  and  _489
REMARK  197  A    between atoms: _491  and  _493
REMARK  198  A    between atoms: _493  and  _494
REMARK  199  A    between atoms: _493  and  _496
REMARK  200  A    between atoms: _496  and  _497
REMARK  201  A    between atoms: _500  and  _502
REMARK  202  A    between atoms: _502  and  _503
REMARK  203  A    between atoms: _502  and  _505
REMARK  204  A    between atoms: _505  and  _506
REMARK  205  A    between atoms: _510  and  _511
REMARK  206  A    between atoms: _516  and  _518
REMARK  207  A    between atoms: _518  and  _519
REMARK  208  A    between atoms: _518  and  _521
REMARK  209  A    between atoms: _524  and  _526
REMARK  210  A    between atoms: _526  and  _527
REMARK  211  A    between atoms: _526  and  _529
REMARK  212  A    between atoms: _529  and  _530
REMARK  213  A    between atoms: _535  and  _537
REMARK  214  A    between atoms: _537  and  _538
REMARK  215  A    between atoms: _537  and  _540
REMARK  216  A    between atoms: _540  and  _541
REMARK  217  A    between atoms: _544  and  _546
REMARK  218  A    between atoms: _546  and  _547
REMARK  219  A    between atoms: _546  and  _549
REMARK  220  A    between atoms: _549  and  _550
REMARK  221  A    between atoms: _553  and  _555
REMARK  222  A    between atoms: _555  and  _556
REMARK  223  A    between atoms: _558  and  _560
REMARK  224  A    between atoms: _560  and  _561
REMARK  225  A    between atoms: _560  and  _563
REMARK  226  A    between atoms: _563  and  _564
REMARK  227  A    between atoms: _564  and  _565
REMARK  228  A    between atoms: _565  and  _566
REMARK                            x       y       z     vdW  Elec       q    Type
REMARK                         _______ _______ _______ _____ _____    ______ ____
ROOT
ATOM      1  NE  ARG A   1       8.083  19.927  39.161  0.00  0.00    -0.265 N 
ATOM      2  HE  ARG A   1       7.630  19.307  39.863  0.00  0.00    +0.259 HD
ATOM      3  CZ  ARG A   1       9.178  19.478  38.566  0.00  0.00    +0.342 C 
ATOM      4  NH2 ARG A   1       9.646  18.278  38.868  0.00  0.00    -0.292 N 
ATOM      5 HH21 ARG A   1       9.154  17.690  39.571  0.00  0.00    +0.255 HD
ATOM      6 HH22 ARG A   1      10.505  17.923  38.403  0.00  0.00    +0.255 HD
ATOM      7  NH1 ARG A   1       9.810  20.223  37.687  0.00  0.00    -0.292 N 
ATOM      8 HH11 ARG A   1       9.451  21.171  37.455  0.00  0.00    +0.255 HD
ATOM      9 HH12 ARG A   1      10.669  19.864  37.223  0.00  0.00    +0.255 HD
ENDROOT
BRANCH   1  10
ATOM     10  CD  ARG A   1       7.467  21.214  38.911  0.00  0.00    +0.174 C 
BRANCH  10  11
ATOM     11  CG  ARG A   1       8.421  22.417  38.926  0.00  0.00    +0.045 C 
BRANCH  11  12
ATOM     12  CB  ARG A   1       7.562  23.628  39.281  0.00  0.00    +0.029 C 
BRANCH  12  13
ATOM     13  CA  ARG A   1       8.015  24.979  38.783  0.00  0.00    +0.133 C 
BRANCH  13  14
ATOM     14  N   ARG A   1       9.418  25.236  39.074  0.00  0.00    -0.239 NA
ATOM     15  H   ARG A   1       9.942  24.619  39.727  0.00  0.00    +0.142 HD
ENDBRANCH  13  14
BRANCH  13  16
ATOM     16  C   ARG A   1       7.139  25.997  39.448  0.00  0.00    +0.224 C 
ATOM     17  O   ARG A   1       7.381  26.364  40.579  0.00  0.00    -0.287 OA
ENDBRANCH  13  16
ENDBRANCH  12  13
ENDBRANCH  11  12
ENDBRANCH  10  11
ENDBRANCH   1  10
TORSDOF 6
REMARK  Name = ../refined-set-2016/1bai/1bai_pocket.pdb
REMARK  228 active torsions:
REMARK  status: ('A' for Active; 'I' for Inactive)
REMARK    1  A    between atoms: _1  and  _3
REMARK    2  A    between atoms: _3  and  _4
REMARK    3  A    between atoms: _3  and  _6
REMARK    4  A    between atoms: _6  and  _7
REMARK    5  A    between atoms: _7  and  _8
REMARK    6  A    between atoms: _8  and  _9
REMARK    7  A    between atoms: _18  and  _20
REMARK    8  A    between atoms: _20  and  _21
REMARK    9  A    between atoms: _20  and  _23
REMARK   10  A    between atoms: _23  and  _24
REMARK   11  A    between atoms: _27  and  _29
REMARK   12  A    between atoms: _29  and  _30
REMARK   13  A    between atoms: _29  and  _32
REMARK   14  A    between atoms: _32  and  _33
REMARK   15  A    between atoms: _36  and  _38
REMARK   16  A    between atoms: _38  and  _39
REMARK   17  A    between atoms: _38  and  _41
REMARK   18  A    between atoms: _41  and  _42
REMARK   19  A    between atoms: _45  and  _47
REMARK   20  A    between atoms: _47  and  _48
REMARK   21  A    between atoms: _47  and  _50
REMARK   22  A    between atoms: _50  and  _51
REMARK   23  A    between atoms: _54  and  _56
REMARK   24  A    between atoms: _56  and  _57
REMARK   25  A    between atoms: _56  and  _59
REMARK   26  A    between atoms: _59  and  _60
REMARK   27  A    between atoms: _63  and  _65
REMARK   28  A    between atoms: _65  and  _66
REMARK   29  A    between atoms: _68  and  _70
REMARK   30  A    between atoms: _70  and  _71
REMARK   31  A    between atoms: _74  and  _76
REMARK   32  A    between atoms: _76  and  _77
REMARK   33  A    between atoms: _76  and  _79
REMARK   34  A    between atoms: _79  and  _80
REMARK   35  A    between atoms: _83  and  _85
REMARK   36  A    between atoms: _85  and  _86
REMARK   37  A    between atoms: _85  and  _88
REMARK   38  A    between atoms: _88  and  _89
REMARK   39  A    between atoms: _92  and  _94
REMARK   40  A    between atoms: _94  and  _95
REMARK   41  A    between atoms: _94  and  _97
REMARK   42  A    between atoms: _97  and  _98
REMARK   43  A    between atoms: _101  and  _103
REMARK   44  A    between atoms: _103  and  _104
REMARK   45  A    between atoms: _103  and  _106
REMARK   46  A    between atoms: _109  and  _111
REMARK   47  A    between atoms: _111  and  _112
REMARK   48  A    between atoms: _115  and  _117
REMARK   49  A    between atoms: _117  and  _118
REMARK   50  A    between atoms: _121  and  _123
REMARK   51  A    between atoms: _123  and  _124
REMARK   52  A    between atoms: _123  and  _126
REMARK   53  A    between atoms: _126  and  _127
REMARK   54  A    between atoms: _133  and  _134
REMARK   55  A    between atoms: _139  and  _141
REMARK   56  A    between atoms: _141  and  _142
REMARK   57  A    between atoms: _141  and  _144
REMARK   58  A    between atoms: _144  and  _145
REMARK   59  A    between atoms: _145  and  _146
REMARK   60  A    between atoms: _151  and  _153
REMARK   61  A    between atoms: _153  and  _154
REMARK   62  A    between atoms: _153  and  _156
REMARK   63  A    between atoms: _156  and  _157
REMARK   64  A    between atoms: _160  and  _162
REMARK   65  A    between atoms: _162  and  _163
REMARK   66  A    between atoms: _162  and  _165
REMARK   67  A    between atoms: _165  and  _166
REMARK   68  A    between atoms: _171  and  _173
REMARK   69  A    between atoms: _173  and  _174
REMARK   70  A    between atoms: _176  and  _178
REMARK   71  A    between atoms: _178  and  _179
REMARK   72  A    between atoms: _178  and  _181
REMARK   73  A    between atoms: _181  and  _182
REMARK   74  A    between atoms: _185  and  _187
REMARK   75  A    between atoms: _187  and  _188
REMARK   76  A    between atoms: _190  and  _192
REMARK   77  A    between atoms: _192  and  _193
REMARK   78  A    between atoms: _195  and  _197
REMARK   79  A    between atoms: _197  and  _198
REMARK   80  A    between atoms: _200  and  _202
REMARK   81  A    between atoms: _202  and  _203
REMARK   82  A    between atoms: _202  and  _205
REMARK   83  A    between atoms: _205  and  _206
REMARK   84  A    between atoms: _209  and  _211
REMARK   85  A    between atoms: _211  and  _212
REMARK   86  A    between atoms: _211  and  _214
REMARK   87  A    between atoms: _217  and  _219
REMARK   88  A    between atoms: _219  and  _220
REMARK   89  A    between atoms: _219  and  _222
REMARK   90  A    between atoms: _222  and  _223
REMARK   91  A    between atoms: _226  and  _228
REMARK   92  A    between atoms: _228  and  _229
REMARK   93  A    between atoms: _232  and  _234
REMARK   94  A    between atoms: _234  and  _235
REMARK   95  A    between atoms: _234  and  _237
REMARK   96  A    between atoms: _237  and  _238
REMARK   97  A    between atoms: _242  and  _243
REMARK   98  A    between atoms: _248  and  _250
REMARK   99  A    between atoms: _250  and  _251
REMARK  100  A    between atoms: _250  and  _253
REMARK  101  A    between atoms: _256  and  _258
REMARK  102  A    between atoms: _258  and  _259
REMARK  103  A    between atoms: _258  and  _261
REMARK  104  A    between atoms: _261  and  _262
REMARK  105  A    between atoms: _267  and  _269
REMARK  106  A    between atoms: _269  and  _270
REMARK  107  A    between atoms: _269  and  _272
REMARK  108  A    between atoms: _272  and  _273
REMARK  109  A    between atoms: _276  and  _278
REMARK  110  A    between atoms: _278  and  _279
REMARK  111  A    between atoms: _278  and  _281
REMARK  112  A    between atoms: _281  and  _282
REMARK  113  A    between atoms: _285  and  _287
REMARK  114  A    between atoms: _287  and  _288
REMARK  115  A    between atoms: _290  and  _292
REMARK  116  A    between atoms: _292  and  _293
REMARK  117  A    between atoms: _292  and  _295
REMARK  118  A    between atoms: _295  and  _296
REMARK  119  A    between atoms: _296  and  _297
REMARK  120  A    between atoms: _297  and  _298
REMARK  121  A    between atoms: _307  and  _309
REMARK  122  A    between atoms: _309  and  _310
REMARK  123  A    between atoms: _309  and  _312
REMARK  124  A    between atoms: _312  and  _313
REMARK  125  A    between atoms: _316  and  _318
REMARK  126  A    between atoms: _318  and  _319
REMARK  127  A    between atoms: _318  and  _321
REMARK  128  A    between atoms: _321  and  _322
REMARK  129  A    between atoms: _327  and  _329
REMARK  130  A    between atoms: _329  and  _330
REMARK  131  A    between atoms: _329  and  _332
REMARK  132  A    between atoms: _332  and  _333
REMARK  133  A    between atoms: _333  and  _334
REMARK  134  A    between atoms: _334  and  _335
REMARK  135  A    between atoms: _344  and  _346
REMARK  136  A    between atoms: _346  and  _347
REMARK  137  A    between atoms: _346  and  _349
REMARK  138  A    between atoms: _349  and  _350
REMARK  139  A    between atoms: _353  and  _355
REMARK  140  A    between atoms: _355  and  _356
REMARK  141  A    between atoms: _355  and  _358
REMARK  142  A    between atoms: _358  and  _359
REMARK  143  A    between atoms: _362  and  _364
REMARK  144  A    between atoms: _364  and  _365
REMARK  145  A    between atoms: _364  and  _367
REMARK  146  A    between atoms: _367  and  _368
REMARK  147  A    between atoms: _371  and  _373
REMARK  148  A    between atoms: _373  and  _374
REMARK  149  A    between atoms: _373  and  _376
REMARK  150  A    between atoms: _376  and  _377
REMARK  151  A    between atoms: _380  and  _382
REMARK  152  A    between atoms: _382  and  _383
REMARK  153  A    between atoms: _382  and  _385
REMARK  154  A    between atoms: _385  and  _386
REMARK  155  A    between atoms: _389  and  _391
REMARK  156  A    between atoms: _391  and  _392
REMARK  157  A    between atoms: _394  and  _396
REMARK  158  A    between atoms: _396  and  _397
REMARK  159  A    between atoms: _400  and  _402
REMARK  160  A    between atoms: _402  and  _403
REMARK  161  A    between atoms: _402  and  _405
REMARK  162  A    between atoms: _405  and  _406
REMARK  163  A    between atoms: _409  and  _411
REMARK  164  A    between atoms: _411  and  _412
REMARK  165  A    between atoms: _411  and  _414
REMARK  166  A    between atoms: _414  and  _415
REMARK  167  A    between atoms: _418  and  _420
REMARK  168  A    between atoms: _420  and  _421
REMARK  169  A    between atoms: _420  and  _423
REMARK  170  A    between atoms: _423  and  _424
REMARK  171  A    between atoms: _427  and  _429
REMARK  172  A    between atoms: _429  and  _430
REMARK  173  A    between atoms: _429  and  _432
REMARK  174  A    between atoms: _435  and  _437
REMARK  175  A    between atoms: _437  and  _438
REMARK  176  A    between atoms: _437  and  _440
REMARK  177  A    between atoms: _440  and  _441
REMARK  178  A    between atoms: _441  and  _442
REMARK  179  A    between atoms: _447  and  _449
REMARK  180  A    between atoms: _449  and  _450
REMARK  181  A    between atoms: _449  and  _452
REMARK  182  A    between atoms: _452  and  _453
REMARK  183  A    between atoms: _456  and  _458
REMARK  184  A    between atoms: _458  and  _459
REMARK  185  A    between atoms: _458  and  _461
REMARK  186  A    between atoms: _461  and  _462
REMARK  187  A    between atoms: _467  and  _469
REMARK  188  A    between atoms: _469  and  _470
REMARK  189  A    between atoms: _472  and  _474
REMARK  190  A    between atoms: _474  and  _475
REMARK  191  A    between atoms: _474  and  _477
REMARK  192  A    between atoms: _477  and  _478
REMARK  193  A    between atoms: _481  and  _483
REMARK  194  A    between atoms: _483  and  _484
REMARK  195  A    between atoms: _486  and  _488
REMARK  196  A    between atoms: _488  and  _489
REMARK  197  A    between atoms: _491  and  _493
REMARK  198  A    between atoms: _493  and  _494
REMARK  199  A    between atoms: _493  and  _496
REMARK  200  A    between atoms: _496  and  _497
REMARK  201  A    between atoms: _500  and  _502
REMARK  202  A    between atoms: _502  and  _503
REMARK  203  A    between atoms: _502  and  _505
REMARK  204  A    between atoms: _505  and  _506
REMARK  205  A    between atoms: _510  and  _511
REMARK  206  A    between atoms: _516  and  _518
REMARK  207  A    between atoms: _518  and  _519
REMARK  208  A    between atoms: _518  and  _521
REMARK  209  A    between atoms: _524  and  _526
REMARK  210  A    between atoms: _526  and  _527
REMARK  211  A    between atoms: _526  and  _529
REMARK  212  A    between atoms: _529  and  _530
REMARK  213  A    between atoms: _535  and  _537
REMARK  214  A    between atoms: _537  and  _538
REMARK  215  A    between atoms: _537  and  _540
REMARK  216  A    between atoms: _540  and  _541
REMARK  217  A    between atoms: _544  and  _546
REMARK  218  A    between atoms: _546  and  _547
REMARK  219  A    between atoms: _546  and  _549
REMARK  220  A    between atoms: _549  and  _550
REMARK  221  A    between atoms: _553  and  _555
REMARK  222  A    between atoms: _555  and  _556
REMARK  223  A    between atoms: _558  and  _560
REMARK  224  A    between atoms: _560  and  _561
REMARK  225  A    between atoms: _560  and  _563
REMARK  226  A    between atoms: _563  and  _564
REMARK  227  A    between atoms: _564  and  _565
REMARK  228  A    between atoms: _565  and  _566
REMARK                            x       y       z     vdW  Elec       q    Type
REMARK                         _______ _______ _______ _____ _____    ______ ____
ROOT
ATOM      1  CA  LEU A   1       4.853  26.025  42.982  0.00  0.00    +0.133 C 
ENDROOT
BRANCH   1   2
ATOM      2  N   LEU A   1       5.247  26.594  41.699  0.00  0.00    -0.239 NA
ATOM      3  H   LEU A   1       6.240  26.881  41.581  0.00  0.00    +0.142 HD
ENDBRANCH   1   2
BRANCH   1   4
ATOM      4  C   LEU A   1       4.413  27.091  44.044  0.00  0.00    +0.224 C 
ATOM      5  O   LEU A   1       5.069  28.153  44.206  0.00  0.00    -0.287 OA
ENDBRANCH   1   4
BRANCH   1   6
ATOM      6  CB  LEU A   1       6.036  25.204  43.487  0.00  0.00    +0.025 C 
BRANCH   6   7
ATOM      7  CG  LEU A   1       5.858  23.915  44.279  0.00  0.00    +0.002 C 
ATOM      8  CD2 LEU A   1       6.996  23.801  45.283  0.00  0.00    +0.000 C 
ATOM      9  CD1 LEU A   1       5.886  22.742  43.310  0.00  0.00    +0.000 C 
ENDBRANCH   6   7
ENDBRANCH   1   6
TORSDOF 4
REMARK  Name = ../refined-set-2016/1bai/1bai_pocket.pdb
REMARK  228 active torsions:
REMARK  status: ('A' for Active; 'I' for Inactive)
REMARK    1  A    between atoms: _1  and  _3
REMARK    2  A    between atoms: _3  and  _4
REMARK    3  A    between atoms: _3  and  _6
REMARK    4  A    between atoms: _6  and  _7
REMARK    5  A    between atoms: _7  and  _8
REMARK    6  A    between atoms: _8  and  _9
REMARK    7  A    between atoms: _18  and  _20
REMARK    8  A    between atoms: _20  and  _21
REMARK    9  A    between atoms: _20  and  _23
REMARK   10  A    between atoms: _23  and  _24
REMARK   11  A    between atoms: _27  and  _29
REMARK   12  A    between atoms: _29  and  _30
REMARK   13  A    between atoms: _29  and  _32
REMARK   14  A    between atoms: _32  and  _33
REMARK   15  A    between atoms: _36  and  _38
REMARK   16  A    between atoms: _38  and  _39
REMARK   17  A    between atoms: _38  and  _41
REMARK   18  A    between atoms: _41  and  _42
REMARK   19  A    between atoms: _45  and  _47
REMARK   20  A    between atoms: _47  and  _48
REMARK   21  A    between atoms: _47  and  _50
REMARK   22  A    between atoms: _50  and  _51
REMARK   23  A    between atoms: _54  and  _56
REMARK   24  A    between atoms: _56  and  _57
REMARK   25  A    between atoms: _56  and  _59
REMARK   26  A    between atoms: _59  and  _60
REMARK   27  A    between atoms: _63  and  _65
REMARK   28  A    between atoms: _65  and  _66
REMARK   29  A    between atoms: _68  and  _70
REMARK   30  A    between atoms: _70  and  _71
REMARK   31  A    between atoms: _74  and  _76
REMARK   32  A    between atoms: _76  and  _77
REMARK   33  A    between atoms: _76  and  _79
REMARK   34  A    between atoms: _79  and  _80
REMARK   35  A    between atoms: _83  and  _85
REMARK   36  A    between atoms: _85  and  _86
REMARK   37  A    between atoms: _85  and  _88
REMARK   38  A    between atoms: _88  and  _89
REMARK   39  A    between atoms: _92  and  _94
REMARK   40  A    between atoms: _94  and  _95
REMARK   41  A    between atoms: _94  and  _97
REMARK   42  A    between atoms: _97  and  _98
REMARK   43  A    between atoms: _101  and  _103
REMARK   44  A    between atoms: _103  and  _104
REMARK   45  A    between atoms: _103  and  _106
REMARK   46  A    between atoms: _109  and  _111
REMARK   47  A    between atoms: _111  and  _112
REMARK   48  A    between atoms: _115  and  _117
REMARK   49  A    between atoms: _117  and  _118
REMARK   50  A    between atoms: _121  and  _123
REMARK   51  A    between atoms: _123  and  _124
REMARK   52  A    between atoms: _123  and  _126
REMARK   53  A    between atoms: _126  and  _127
REMARK   54  A    between atoms: _133  and  _134
REMARK   55  A    between atoms: _139  and  _141
REMARK   56  A    between atoms: _141  and  _142
REMARK   57  A    between atoms: _141  and  _144
REMARK   58  A    between atoms: _144  and  _145
REMARK   59  A    between atoms: _145  and  _146
REMARK   60  A    between atoms: _151  and  _153
REMARK   61  A    between atoms: _153  and  _154
REMARK   62  A    between atoms: _153  and  _156
REMARK   63  A    between atoms: _156  and  _157
REMARK   64  A    between atoms: _160  and  _162
REMARK   65  A    between atoms: _162  and  _163
REMARK   66  A    between atoms: _162  and  _165
REMARK   67  A    between atoms: _165  and  _166
REMARK   68  A    between atoms: _171  and  _173
REMARK   69  A    between atoms: _173  and  _174
REMARK   70  A    between atoms: _176  and  _178
REMARK   71  A    between atoms: _178  and  _179
REMARK   72  A    between atoms: _178  and  _181
REMARK   73  A    between atoms: _181  and  _182
REMARK   74  A    between atoms: _185  and  _187
REMARK   75  A    between atoms: _187  and  _188
REMARK   76  A    between atoms: _190  and  _192
REMARK   77  A    between atoms: _192  and  _193
REMARK   78  A    between atoms: _195  and  _197
REMARK   79  A    between atoms: _197  and  _198
REMARK   80  A    between atoms: _200  and  _202
REMARK   81  A    between atoms: _202  and  _203
REMARK   82  A    between atoms: _202  and  _205
REMARK   83  A    between atoms: _205  and  _206
REMARK   84  A    between atoms: _209  and  _211
REMARK   85  A    between atoms: _211  and  _212
REMARK   86  A    between atoms: _211  and  _214
REMARK   87  A    between atoms: _217  and  _219
REMARK   88  A    between atoms: _219  and  _220
REMARK   89  A    between atoms: _219  and  _222
REMARK   90  A    between atoms: _222  and  _223
REMARK   91  A    between atoms: _226  and  _228
REMARK   92  A    between atoms: _228  and  _229
REMARK   93  A    between atoms: _232  and  _234
REMARK   94  A    between atoms: _234  and  _235
REMARK   95  A    between atoms: _234  and  _237
REMARK   96  A    between atoms: _237  and  _238
REMARK   97  A    between atoms: _242  and  _243
REMARK   98  A    between atoms: _248  and  _250
REMARK   99  A    between atoms: _250  and  _251
REMARK  100  A    between atoms: _250  and  _253
REMARK  101  A    between atoms: _256  and  _258
REMARK  102  A    between atoms: _258  and  _259
REMARK  103  A    between atoms: _258  and  _261
REMARK  104  A    between atoms: _261  and  _262
REMARK  105  A    between atoms: _267  and  _269
REMARK  106  A    between atoms: _269  and  _270
REMARK  107  A    between atoms: _269  and  _272
REMARK  108  A    between atoms: _272  and  _273
REMARK  109  A    between atoms: _276  and  _278
REMARK  110  A    between atoms: _278  and  _279
REMARK  111  A    between atoms: _278  and  _281
REMARK  112  A    between atoms: _281  and  _282
REMARK  113  A    between atoms: _285  and  _287
REMARK  114  A    between atoms: _287  and  _288
REMARK  115  A    between atoms: _290  and  _292
REMARK  116  A    between atoms: _292  and  _293
REMARK  117  A    between atoms: _292  and  _295
REMARK  118  A    between atoms: _295  and  _296
REMARK  119  A    between atoms: _296  and  _297
REMARK  120  A    between atoms: _297  and  _298
REMARK  121  A    between atoms: _307  and  _309
REMARK  122  A    between atoms: _309  and  _310
REMARK  123  A    between atoms: _309  and  _312
REMARK  124  A    between atoms: _312  and  _313
REMARK  125  A    between atoms: _316  and  _318
REMARK  126  A    between atoms: _318  and  _319
REMARK  127  A    between atoms: _318  and  _321
REMARK  128  A    between atoms: _321  and  _322
REMARK  129  A    between atoms: _327  and  _329
REMARK  130  A    between atoms: _329  and  _330
REMARK  131  A    between atoms: _329  and  _332
REMARK  132  A    between atoms: _332  and  _333
REMARK  133  A    between atoms: _333  and  _334
REMARK  134  A    between atoms: _334  and  _335
REMARK  135  A    between atoms: _344  and  _346
REMARK  136  A    between atoms: _346  and  _347
REMARK  137  A    between atoms: _346  and  _349
REMARK  138  A    between atoms: _349  and  _350
REMARK  139  A    between atoms: _353  and  _355
REMARK  140  A    between atoms: _355  and  _356
REMARK  141  A    between atoms: _355  and  _358
REMARK  142  A    between atoms: _358  and  _359
REMARK  143  A    between atoms: _362  and  _364
REMARK  144  A    between atoms: _364  and  _365
REMARK  145  A    between atoms: _364  and  _367
REMARK  146  A    between atoms: _367  and  _368
REMARK  147  A    between atoms: _371  and  _373
REMARK  148  A    between atoms: _373  and  _374
REMARK  149  A    between atoms: _373  and  _376
REMARK  150  A    between atoms: _376  and  _377
REMARK  151  A    between atoms: _380  and  _382
REMARK  152  A    between atoms: _382  and  _383
REMARK  153  A    between atoms: _382  and  _385
REMARK  154  A    between atoms: _385  and  _386
REMARK  155  A    between atoms: _389  and  _391
REMARK  156  A    between atoms: _391  and  _392
REMARK  157  A    between atoms: _394  and  _396
REMARK  158  A    between atoms: _396  and  _397
REMARK  159  A    between atoms: _400  and  _402
REMARK  160  A    between atoms: _402  and  _403
REMARK  161  A    between atoms: _402  and  _405
REMARK  162  A    between atoms: _405  and  _406
REMARK  163  A    between atoms: _409  and  _411
REMARK  164  A    between atoms: _411  and  _412
REMARK  165  A    between atoms: _411  and  _414
REMARK  166  A    between atoms: _414  and  _415
REMARK  167  A    between atoms: _418  and  _420
REMARK  168  A    between atoms: _420  and  _421
REMARK  169  A    between atoms: _420  and  _423
REMARK  170  A    between atoms: _423  and  _424
REMARK  171  A    between atoms: _427  and  _429
REMARK  172  A    between atoms: _429  and  _430
REMARK  173  A    between atoms: _429  and  _432
REMARK  174  A    between atoms: _435  and  _437
REMARK  175  A    between atoms: _437  and  _438
REMARK  176  A    between atoms: _437  and  _440
REMARK  177  A    between atoms: _440  and  _441
REMARK  178  A    between atoms: _441  and  _442
REMARK  179  A    between atoms: _447  and  _449
REMARK  180  A    between atoms: _449  and  _450
REMARK  181  A    between atoms: _449  and  _452
REMARK  182  A    between atoms: _452  and  _453
REMARK  183  A    between atoms: _456  and  _458
REMARK  184  A    between atoms: _458  and  _459
REMARK  185  A    between atoms: _458  and  _461
REMARK  186  A    between atoms: _461  and  _462
REMARK  187  A    between atoms: _467  and  _469
REMARK  188  A    between atoms: _469  and  _470
REMARK  189  A    between atoms: _472  and  _474
REMARK  190  A    between atoms: _474  and  _475
REMARK  191  A    between atoms: _474  and  _477
REMARK  192  A    between atoms: _477  and  _478
REMARK  193  A    between atoms: _481  and  _483
REMARK  194  A    between atoms: _483  and  _484
REMARK  195  A    between atoms: _486  and  _488
REMARK  196  A    between atoms: _488  and  _489
REMARK  197  A    between atoms: _491  and  _493
REMARK  198  A    between atoms: _493  and  _494
REMARK  199  A    between atoms: _493  and  _496
REMARK  200  A    between atoms: _496  and  _497
REMARK  201  A    between atoms: _500  and  _502
REMARK  202  A    between atoms: _502  and  _503
REMARK  203  A    between atoms: _502  and  _505
REMARK  204  A    between atoms: _505  and  _506
REMARK  205  A    between atoms: _510  and  _511
REMARK  206  A    between atoms: _516  and  _518
REMARK  207  A    between atoms: _518  and  _519
REMARK  208  A    between atoms: _518  and  _521
REMARK  209  A    between atoms: _524  and  _526
REMARK  210  A    between atoms: _526  and  _527
REMARK  211  A    between atoms: _526  and  _529
REMARK  212  A    between atoms: _529  and  _530
REMARK  213  A    between atoms: _535  and  _537
REMARK  214  A    between atoms: _537  and  _538
REMARK  215  A    between atoms: _537  and  _540
REMARK  216  A    between atoms: _540  and  _541
REMARK  217  A    between atoms: _544  and  _546
REMARK  218  A    between atoms: _546  and  _547
REMARK  219  A    between atoms: _546  and  _549
REMARK  220  A    between atoms: _549  and  _550
REMARK  221  A    between atoms: _553  and  _555
REMARK  222  A    between atoms: _555  and  _556
REMARK  223  A    between atoms: _558  and  _560
REMARK  224  A    between atoms: _560  and  _561
REMARK  225  A    between atoms: _560  and  _563
REMARK  226  A    between atoms: _563  and  _564
REMARK  227  A    between atoms: _564  and  _565
REMARK  228  A    between atoms: _565  and  _566
REMARK                            x       y       z     vdW  Elec       q    Type
REMARK                         _______ _______ _______ _____ _____    ______ ____
ROOT
ATOM      1  C   GLY A   5      -3.871  20.932  32.192  0.00  0.00    +0.243 C 
ATOM      2  N   ALA A   6      -4.200  21.447  33.376  0.00  0.00    -0.297 N 
ATOM      3  H   ALA A   6      -3.860  22.401  33.613  0.00  0.00    +0.150 HD
ATOM      4  O   GLY A   5      -4.176  19.794  31.865  0.00  0.00    -0.273 OA
ENDROOT
BRANCH   2   5
ATOM      5  CA  ALA A   6      -5.019  20.732  34.360  0.00  0.00    +0.149 C 
ATOM      6  CB  ALA A   6      -4.346  20.762  35.713  0.00  0.00    +0.031 C 
BRANCH   5   7
ATOM      7  C   ALA A   6      -6.478  21.280  34.443  0.00  0.00    +0.241 C 
ATOM      8  O   ALA A   6      -6.718  22.354  34.941  0.00  0.00    -0.273 OA
ATOM      9  N   ASP A   7      -7.418  20.561  33.847  0.00  0.00    -0.297 N 
ATOM     10  H   ASP A   7      -7.154  19.675  33.370  0.00  0.00    +0.150 HD
BRANCH   9  11
ATOM     11  CA  ASP A   7      -8.787  20.975  33.844  0.00  0.00    +0.160 C 
BRANCH  11  12
ATOM     12  C   ASP A   7      -9.247  21.159  35.255  0.00  0.00    +0.241 C 
ATOM     13  N   ASP A   8      -8.917  20.153  36.071  0.00  0.00    -0.297 N 
ATOM     14  H   ASP A   8      -8.316  19.400  35.679  0.00  0.00    +0.150 HD
ATOM     15  O   ASP A   7      -9.775  22.210  35.608  0.00  0.00    -0.273 OA
BRANCH  13  16
ATOM     16  CA  ASP A   8      -9.325  20.023  37.455  0.00  0.00    +0.160 C 
BRANCH  16  17
ATOM     17  C   ASP A   8      -8.200  20.211  38.468  0.00  0.00    +0.241 C 
ATOM     18  N   THR A   9      -8.563  20.538  39.723  0.00  0.00    -0.295 N 
ATOM     19  H   THR A   9      -9.577  20.696  39.894  0.00  0.00    +0.150 HD
ATOM     20  O   ASP A   8      -7.056  19.995  38.129  0.00  0.00    -0.273 OA
BRANCH  18  21
ATOM     21  CA  THR A   9      -7.654  20.694  40.883  0.00  0.00    +0.176 C 
BRANCH  21  22
ATOM     22  C   THR A   9      -7.748  19.376  41.628  0.00  0.00    +0.243 C 
ATOM     23  O   THR A   9      -8.823  18.960  42.009  0.00  0.00    -0.273 OA
ATOM     24  N   VAL A  10      -6.623  18.732  41.843  0.00  0.00    -0.298 N 
ATOM     25  H   VAL A  10      -5.726  19.177  41.562  0.00  0.00    +0.150 HD
BRANCH  24  26
ATOM     26  CA  VAL A  10      -6.594  17.410  42.465  0.00  0.00    +0.137 C 
BRANCH  26  27
ATOM     27  CB  VAL A  10      -6.295  16.275  41.352  0.00  0.00    +0.026 C 
ATOM     28  CG2 VAL A  10      -6.953  14.919  41.677  0.00  0.00    +0.002 C 
ATOM     29  CG1 VAL A  10      -4.768  16.062  41.167  0.00  0.00    +0.002 C 
ENDBRANCH  26  27
BRANCH  26  30
ATOM     30  C   VAL A  10      -5.466  17.446  43.486  0.00  0.00    +0.227 C 
ATOM     31  O   VAL A  10      -4.331  17.847  43.143  0.00  0.00    -0.286 OA
ENDBRANCH  26  30
ENDBRANCH  24  26
ENDBRANCH  21  22
BRANCH  21  32
ATOM     32  CB  THR A   9      -8.131  21.807  41.828  0.00  0.00    +0.137 C 
ATOM     33  CG2 THR A   9      -7.218  21.922  43.050  0.00  0.00    +0.034 C 
BRANCH  32  34
ATOM     34  OG1 THR A   9      -8.093  23.050  41.115  0.00  0.00    -0.382 OA
ATOM     35  HG1 THR A   9      -8.689  22.995  40.326  0.00  0.00    +0.210 HD
ENDBRANCH  32  34
ENDBRANCH  21  32
ENDBRANCH  18  21
ENDBRANCH  16  17
BRANCH  16  36
ATOM     36  CB  ASP A   8      -9.870  18.604  37.602  0.00  0.00    +0.143 C 
BRANCH  36  37
ATOM     37  CG  ASP A   8     -10.837  18.212  36.464  0.00  0.00    +0.367 C 
ATOM     38  OD2 ASP A   8     -11.934  18.830  36.380  0.00  0.00    -0.246 OA
ATOM     39  OD1 ASP A   8     -10.494  17.286  35.673  0.00  0.00    -0.246 OA
ENDBRANCH  36  37
ENDBRANCH  16  36
ENDBRANCH  13  16
ENDBRANCH  11  12
BRANCH  11  40
ATOM     40  CB  ASP A   7      -9.652  19.912  33.202  0.00  0.00    +0.143 C 
BRANCH  40  41
ATOM     41  CG  ASP A   7      -9.485  19.833  31.712  0.00  0.00    +0.367 C 
ATOM     42  OD2 ASP A   7     -10.155  18.935  31.140  0.00  0.00    -0.246 OA
ATOM     43  OD1 ASP A   7      -8.710  20.634  31.099  0.00  0.00    -0.246 OA
ENDBRANCH  40  41
ENDBRANCH  11  40
ENDBRANCH   9  11
ENDBRANCH   5   7
ENDBRANCH   2   5
BRANCH   1  44
ATOM     44  CA  GLY A   5      -3.030  21.821  31.303  0.00  0.00    +0.176 C 
BRANCH  44  46
ATOM     45  C   THR A   4      -3.282  24.033  32.225  0.00  0.00    +0.243 C 
ATOM     46  N   GLY A   5      -2.545  22.937  32.095  0.00  0.00    -0.295 N 
ATOM     47  H   GLY A   5      -1.618  22.877  32.562  0.00  0.00    +0.150 HD
ATOM     48  O   THR A   4      -4.351  24.183  31.643  0.00  0.00    -0.273 OA
BRANCH  45  49
ATOM     49  CA  THR A   4      -2.740  25.131  33.111  0.00  0.00    +0.176 C 
BRANCH  49  52
ATOM     50  C   ASP A   3      -2.281  24.025  35.224  0.00  0.00    +0.241 C 
ATOM     51  O   ASP A   3      -3.417  23.618  35.250  0.00  0.00    -0.273 OA
ATOM     52  N   THR A   4      -1.810  24.667  34.157  0.00  0.00    -0.295 N 
ATOM     53  H   THR A   4      -0.789  24.841  34.062  0.00  0.00    +0.150 HD
BRANCH  50  54
ATOM     54  CA  ASP A   3      -1.281  23.591  36.302  0.00  0.00    +0.160 C 
BRANCH  54  56
ATOM     55  C   LEU A   2      -0.303  25.258  37.816  0.00  0.00    +0.241 C 
ATOM     56  N   ASP A   3      -1.198  24.279  37.596  0.00  0.00    -0.297 N 
ATOM     57  H   ASP A   3      -1.847  24.003  38.361  0.00  0.00    +0.150 HD
ATOM     58  O   LEU A   2       0.373  25.744  36.911  0.00  0.00    -0.273 OA
BRANCH  55  59
ATOM     59  CA  LEU A   2      -0.194  25.861  39.239  0.00  0.00    +0.149 C 
BRANCH  59  62
ATOM     60  C   LEU A   1       0.654  24.112  40.674  0.00  0.00    +0.238 C 
ATOM     61  O   LEU A   1      -0.471  23.662  40.774  0.00  0.00    -0.274 OA
ATOM     62  N   LEU A   2       0.898  25.214  39.981  0.00  0.00    -0.297 N 
ATOM     63  H   LEU A   2       1.856  25.619  39.962  0.00  0.00    +0.150 HD
BRANCH  60  64
ATOM     64  CA  LEU A   1       1.812  23.425  41.371  0.00  0.00    +0.145 C 
BRANCH  64  65
ATOM     65  N   LEU A   1       1.421  22.863  42.682  0.00  0.00    -0.238 NA
ATOM     66  H   LEU A   1       1.291  21.834  42.759  0.00  0.00    +0.142 HD
ENDBRANCH  64  65
BRANCH  64  67
ATOM     67  CB  LEU A   1       2.276  22.299  40.477  0.00  0.00    +0.026 C 
BRANCH  67  68
ATOM     68  CG  LEU A   1       2.761  22.527  39.065  0.00  0.00    +0.002 C 
ATOM     69  CD2 LEU A   1       4.020  23.305  39.059  0.00  0.00    +0.000 C 
ATOM     70  CD1 LEU A   1       2.964  21.191  38.431  0.00  0.00    +0.000 C 
ENDBRANCH  67  68
ENDBRANCH  64  67
ENDBRANCH  60  64
ENDBRANCH  59  62
BRANCH  59  71
ATOM     71  CB  LEU A   2       0.089  27.319  39.107  0.00  0.00    +0.029 C 
BRANCH  71  72
ATOM     72  CG  LEU A   2       0.007  27.796  40.491  0.00  0.00    +0.002 C 
ATOM     73  CD2 LEU A   2       1.183  28.714  40.693  0.00  0.00    +0.000 C 
ATOM     74  CD1 LEU A   2      -1.323  28.492  40.654  0.00  0.00    +0.000 C 
ENDBRANCH  71  72
ENDBRANCH  59  71
ENDBRANCH  55  59
ENDBRANCH  54  56
BRANCH  54  75
ATOM     75  CB  ASP A   3      -1.427  22.103  36.565  0.00  0.00    +0.143 C 
BRANCH  75  76
ATOM     76  CG  ASP A   3      -0.976  21.279  35.394  0.00  0.00    +0.367 C 
ATOM     77  OD2 ASP A   3      -0.262  20.279  35.582  0.00  0.00    -0.246 OA
ATOM     78  OD1 ASP A   3      -1.249  21.686  34.247  0.00  0.00    -0.246 OA
ENDBRANCH  75  76
ENDBRANCH  54  75
ENDBRANCH  50  54
ENDBRANCH  49  52
BRANCH  49  79
ATOM     79  CB  THR A   4      -2.155  26.282  32.267  0.00  0.00    +0.137 C 
ATOM     80  CG2 THR A   4      -1.868  27.485  33.126  0.00  0.00    +0.034 C 
BRANCH  79  81
ATOM     81  OG1 THR A   4      -0.934  25.847  31.679  0.00  0.00    -0.382 OA
ATOM     82  HG1 THR A   4      -1.109  25.062  31.101  0.00  0.00    +0.210 HD
ENDBRANCH  79  81
ENDBRANCH  49  79
ENDBRANCH  45  49
ENDBRANCH  44  46
ENDBRANCH   1  44
TORSDOF 35
REMARK  Name = ../refined-set-2016/1bai/1bai_pocket.pdb
REMARK  228 active torsions:
REMARK  status: ('A' for Active; 'I' for Inactive)
REMARK    1  A    between atoms: _1  and  _3
REMARK    2  A    between atoms: _3  and  _4
REMARK    3  A    between atoms: _3  and  _6
REMARK    4  A    between atoms: _6  and  _7
REMARK    5  A    between atoms: _7  and  _8
REMARK    6  A    between atoms: _8  and  _9
REMARK    7  A    between atoms: _18  and  _20
REMARK    8  A    between atoms: _20  and  _21
REMARK    9  A    between atoms: _20  and  _23
REMARK   10  A    between atoms: _23  and  _24
REMARK   11  A    between atoms: _27  and  _29
REMARK   12  A    between atoms: _29  and  _30
REMARK   13  A    between atoms: _29  and  _32
REMARK   14  A    between atoms: _32  and  _33
REMARK   15  A    between atoms: _36  and  _38
REMARK   16  A    between atoms: _38  and  _39
REMARK   17  A    between atoms: _38  and  _41
REMARK   18  A    between atoms: _41  and  _42
REMARK   19  A    between atoms: _45  and  _47
REMARK   20  A    between atoms: _47  and  _48
REMARK   21  A    between atoms: _47  and  _50
REMARK   22  A    between atoms: _50  and  _51
REMARK   23  A    between atoms: _54  and  _56
REMARK   24  A    between atoms: _56  and  _57
REMARK   25  A    between atoms: _56  and  _59
REMARK   26  A    between atoms: _59  and  _60
REMARK   27  A    between atoms: _63  and  _65
REMARK   28  A    between atoms: _65  and  _66
REMARK   29  A    between atoms: _68  and  _70
REMARK   30  A    between atoms: _70  and  _71
REMARK   31  A    between atoms: _74  and  _76
REMARK   32  A    between atoms: _76  and  _77
REMARK   33  A    between atoms: _76  and  _79
REMARK   34  A    between atoms: _79  and  _80
REMARK   35  A    between atoms: _83  and  _85
REMARK   36  A    between atoms: _85  and  _86
REMARK   37  A    between atoms: _85  and  _88
REMARK   38  A    between atoms: _88  and  _89
REMARK   39  A    between atoms: _92  and  _94
REMARK   40  A    between atoms: _94  and  _95
REMARK   41  A    between atoms: _94  and  _97
REMARK   42  A    between atoms: _97  and  _98
REMARK   43  A    between atoms: _101  and  _103
REMARK   44  A    between atoms: _103  and  _104
REMARK   45  A    between atoms: _103  and  _106
REMARK   46  A    between atoms: _109  and  _111
REMARK   47  A    between atoms: _111  and  _112
REMARK   48  A    between atoms: _115  and  _117
REMARK   49  A    between atoms: _117  and  _118
REMARK   50  A    between atoms: _121  and  _123
REMARK   51  A    between atoms: _123  and  _124
REMARK   52  A    between atoms: _123  and  _126
REMARK   53  A    between atoms: _126  and  _127
REMARK   54  A    between atoms: _133  and  _134
REMARK   55  A    between atoms: _139  and  _141
REMARK   56  A    between atoms: _141  and  _142
REMARK   57  A    between atoms: _141  and  _144
REMARK   58  A    between atoms: _144  and  _145
REMARK   59  A    between atoms: _145  and  _146
REMARK   60  A    between atoms: _151  and  _153
REMARK   61  A    between atoms: _153  and  _154
REMARK   62  A    between atoms: _153  and  _156
REMARK   63  A    between atoms: _156  and  _157
REMARK   64  A    between atoms: _160  and  _162
REMARK   65  A    between atoms: _162  and  _163
REMARK   66  A    between atoms: _162  and  _165
REMARK   67  A    between atoms: _165  and  _166
REMARK   68  A    between atoms: _171  and  _173
REMARK   69  A    between atoms: _173  and  _174
REMARK   70  A    between atoms: _176  and  _178
REMARK   71  A    between atoms: _178  and  _179
REMARK   72  A    between atoms: _178  and  _181
REMARK   73  A    between atoms: _181  and  _182
REMARK   74  A    between atoms: _185  and  _187
REMARK   75  A    between atoms: _187  and  _188
REMARK   76  A    between atoms: _190  and  _192
REMARK   77  A    between atoms: _192  and  _193
REMARK   78  A    between atoms: _195  and  _197
REMARK   79  A    between atoms: _197  and  _198
REMARK   80  A    between atoms: _200  and  _202
REMARK   81  A    between atoms: _202  and  _203
REMARK   82  A    between atoms: _202  and  _205
REMARK   83  A    between atoms: _205  and  _206
REMARK   84  A    between atoms: _209  and  _211
REMARK   85  A    between atoms: _211  and  _212
REMARK   86  A    between atoms: _211  and  _214
REMARK   87  A    between atoms: _217  and  _219
REMARK   88  A    between atoms: _219  and  _220
REMARK   89  A    between atoms: _219  and  _222
REMARK   90  A    between atoms: _222  and  _223
REMARK   91  A    between atoms: _226  and  _228
REMARK   92  A    between atoms: _228  and  _229
REMARK   93  A    between atoms: _232  and  _234
REMARK   94  A    between atoms: _234  and  _235
REMARK   95  A    between atoms: _234  and  _237
REMARK   96  A    between atoms: _237  and  _238
REMARK   97  A    between atoms: _242  and  _243
REMARK   98  A    between atoms: _248  and  _250
REMARK   99  A    between atoms: _250  and  _251
REMARK  100  A    between atoms: _250  and  _253
REMARK  101  A    between atoms: _256  and  _258
REMARK  102  A    between atoms: _258  and  _259
REMARK  103  A    between atoms: _258  and  _261
REMARK  104  A    between atoms: _261  and  _262
REMARK  105  A    between atoms: _267  and  _269
REMARK  106  A    between atoms: _269  and  _270
REMARK  107  A    between atoms: _269  and  _272
REMARK  108  A    between atoms: _272  and  _273
REMARK  109  A    between atoms: _276  and  _278
REMARK  110  A    between atoms: _278  and  _279
REMARK  111  A    between atoms: _278  and  _281
REMARK  112  A    between atoms: _281  and  _282
REMARK  113  A    between atoms: _285  and  _287
REMARK  114  A    between atoms: _287  and  _288
REMARK  115  A    between atoms: _290  and  _292
REMARK  116  A    between atoms: _292  and  _293
REMARK  117  A    between atoms: _292  and  _295
REMARK  118  A    between atoms: _295  and  _296
REMARK  119  A    between atoms: _296  and  _297
REMARK  120  A    between atoms: _297  and  _298
REMARK  121  A    between atoms: _307  and  _309
REMARK  122  A    between atoms: _309  and  _310
REMARK  123  A    between atoms: _309  and  _312
REMARK  124  A    between atoms: _312  and  _313
REMARK  125  A    between atoms: _316  and  _318
REMARK  126  A    between atoms: _318  and  _319
REMARK  127  A    between atoms: _318  and  _321
REMARK  128  A    between atoms: _321  and  _322
REMARK  129  A    between atoms: _327  and  _329
REMARK  130  A    between atoms: _329  and  _330
REMARK  131  A    between atoms: _329  and  _332
REMARK  132  A    between atoms: _332  and  _333
REMARK  133  A    between atoms: _333  and  _334
REMARK  134  A    between atoms: _334  and  _335
REMARK  135  A    between atoms: _344  and  _346
REMARK  136  A    between atoms: _346  and  _347
REMARK  137  A    between atoms: _346  and  _349
REMARK  138  A    between atoms: _349  and  _350
REMARK  139  A    between atoms: _353  and  _355
REMARK  140  A    between atoms: _355  and  _356
REMARK  141  A    between atoms: _355  and  _358
REMARK  142  A    between atoms: _358  and  _359
REMARK  143  A    between atoms: _362  and  _364
REMARK  144  A    between atoms: _364  and  _365
REMARK  145  A    between atoms: _364  and  _367
REMARK  146  A    between atoms: _367  and  _368
REMARK  147  A    between atoms: _371  and  _373
REMARK  148  A    between atoms: _373  and  _374
REMARK  149  A    between atoms: _373  and  _376
REMARK  150  A    between atoms: _376  and  _377
REMARK  151  A    between atoms: _380  and  _382
REMARK  152  A    between atoms: _382  and  _383
REMARK  153  A    between atoms: _382  and  _385
REMARK  154  A    between atoms: _385  and  _386
REMARK  155  A    between atoms: _389  and  _391
REMARK  156  A    between atoms: _391  and  _392
REMARK  157  A    between atoms: _394  and  _396
REMARK  158  A    between atoms: _396  and  _397
REMARK  159  A    between atoms: _400  and  _402
REMARK  160  A    between atoms: _402  and  _403
REMARK  161  A    between atoms: _402  and  _405
REMARK  162  A    between atoms: _405  and  _406
REMARK  163  A    between atoms: _409  and  _411
REMARK  164  A    between atoms: _411  and  _412
REMARK  165  A    between atoms: _411  and  _414
REMARK  166  A    between atoms: _414  and  _415
REMARK  167  A    between atoms: _418  and  _420
REMARK  168  A    between atoms: _420  and  _421
REMARK  169  A    between atoms: _420  and  _423
REMARK  170  A    between atoms: _423  and  _424
REMARK  171  A    between atoms: _427  and  _429
REMARK  172  A    between atoms: _429  and  _430
REMARK  173  A    between atoms: _429  and  _432
REMARK  174  A    between atoms: _435  and  _437
REMARK  175  A    between atoms: _437  and  _438
REMARK  176  A    between atoms: _437  and  _440
REMARK  177  A    between atoms: _440  and  _441
REMARK  178  A    between atoms: _441  and  _442
REMARK  179  A    between atoms: _447  and  _449
REMARK  180  A    between atoms: _449  and  _450
REMARK  181  A    between atoms: _449  and  _452
REMARK  182  A    between atoms: _452  and  _453
REMARK  183  A    between atoms: _456  and  _458
REMARK  184  A    between atoms: _458  and  _459
REMARK  185  A    between atoms: _458  and  _461
REMARK  186  A    between atoms: _461  and  _462
REMARK  187  A    between atoms: _467  and  _469
REMARK  188  A    between atoms: _469  and  _470
REMARK  189  A    between atoms: _472  and  _474
REMARK  190  A    between atoms: _474  and  _475
REMARK  191  A    between atoms: _474  and  _477
REMARK  192  A    between atoms: _477  and  _478
REMARK  193  A    between atoms: _481  and  _483
REMARK  194  A    between atoms: _483  and  _484
REMARK  195  A    between atoms: _486  and  _488
REMARK  196  A    between atoms: _488  and  _489
REMARK  197  A    between atoms: _491  and  _493
REMARK  198  A    between atoms: _493  and  _494
REMARK  199  A    between atoms: _493  and  _496
REMARK  200  A    between atoms: _496  and  _497
REMARK  201  A    between atoms: _500  and  _502
REMARK  202  A    between atoms: _502  and  _503
REMARK  203  A    between atoms: _502  and  _505
REMARK  204  A    between atoms: _505  and  _506
REMARK  205  A    between atoms: _510  and  _511
REMARK  206  A    between atoms: _516  and  _518
REMARK  207  A    between atoms: _518  and  _519
REMARK  208  A    between atoms: _518  and  _521
REMARK  209  A    between atoms: _524  and  _526
REMARK  210  A    between atoms: _526  and  _527
REMARK  211  A    between atoms: _526  and  _529
REMARK  212  A    between atoms: _529  and  _530
REMARK  213  A    between atoms: _535  and  _537
REMARK  214  A    between atoms: _537  and  _538
REMARK  215  A    between atoms: _537  and  _540
REMARK  216  A    between atoms: _540  and  _541
REMARK  217  A    between atoms: _544  and  _546
REMARK  218  A    between atoms: _546  and  _547
REMARK  219  A    between atoms: _546  and  _549
REMARK  220  A    between atoms: _549  and  _550
REMARK  221  A    between atoms: _553  and  _555
REMARK  222  A    between atoms: _555  and  _556
REMARK  223  A    between atoms: _558  and  _560
REMARK  224  A    between atoms: _560  and  _561
REMARK  225  A    between atoms: _560  and  _563
REMARK  226  A    between atoms: _563  and  _564
REMARK  227  A    between atoms: _564  and  _565
REMARK  228  A    between atoms: _565  and  _566
REMARK                            x       y       z     vdW  Elec       q    Type
REMARK                         _______ _______ _______ _____ _____    ______ ____
ROOT
ATOM      1  C   ILE A   6      -7.514  10.507  34.679  0.00  0.00    +0.241 C 
ATOM      2  O   ILE A   6      -6.833   9.564  35.066  0.00  0.00    -0.273 OA
ATOM      3  N   HIS A   7      -7.318  11.062  33.509  0.00  0.00    -0.297 N 
ATOM      4  H   HIS A   7      -7.917  11.844  33.175  0.00  0.00    +0.150 HD
ENDROOT
BRANCH   1   5
ATOM      5  CA  ILE A   6      -8.639  11.042  35.524  0.00  0.00    +0.149 C 
BRANCH   5   7
ATOM      6  C   GLN A   5     -10.418   9.482  36.012  0.00  0.00    +0.241 C 
ATOM      7  N   ILE A   6      -9.173   9.892  36.233  0.00  0.00    -0.297 N 
ATOM      8  H   ILE A   6      -8.577   9.386  36.919  0.00  0.00    +0.150 HD
ATOM      9  O   GLN A   5     -11.229  10.148  35.377  0.00  0.00    -0.273 OA
BRANCH   6  10
ATOM     10  CA  GLN A   5     -10.865   8.244  36.778  0.00  0.00    +0.149 C 
BRANCH  10  13
ATOM     11  C   PRO A   4     -12.760   7.277  37.767  0.00  0.00    +0.241 C 
ATOM     12  O   PRO A   4     -12.050   6.987  38.737  0.00  0.00    -0.273 OA
ATOM     13  N   GLN A   5     -12.258   7.885  36.708  0.00  0.00    -0.297 N 
ATOM     14  H   GLN A   5     -12.837   8.093  35.869  0.00  0.00    +0.150 HD
BRANCH  11  18
ATOM     15  C   ASN A   3     -15.091   9.125  36.906  0.00  0.00    +0.244 C 
ATOM     16  O   ASN A   3     -14.397   9.812  37.660  0.00  0.00    -0.273 OA
ATOM     17  N   PRO A   4     -15.090   7.780  36.945  0.00  0.00    -0.272 N 
ATOM     18  CA  PRO A   4     -14.235   6.912  37.755  0.00  0.00    +0.152 C 
ATOM     19  CB  PRO A   4     -14.472   5.535  37.142  0.00  0.00    +0.031 C 
ATOM     20  CG  PRO A   4     -14.902   5.846  35.738  0.00  0.00    +0.024 C 
ATOM     21  CD  PRO A   4     -15.842   6.964  35.979  0.00  0.00    +0.094 C 
BRANCH  15  22
ATOM     22  CA  ASN A   3     -16.085   9.785  35.981  0.00  0.00    +0.158 C 
BRANCH  22  24
ATOM     23  C   ALA A   2     -18.171  10.662  36.847  0.00  0.00    +0.241 C 
ATOM     24  N   ASN A   3     -16.862  10.486  36.959  0.00  0.00    -0.297 N 
ATOM     25  H   ASN A   3     -16.378  10.874  37.794  0.00  0.00    +0.150 HD
ATOM     26  O   ALA A   2     -18.803  10.409  35.833  0.00  0.00    -0.273 OA
BRANCH  23  27
ATOM     27  CA  ALA A   2     -18.830  11.316  38.051  0.00  0.00    +0.149 C 
ATOM     28  CB  ALA A   2     -19.102  12.793  37.735  0.00  0.00    +0.031 C 
BRANCH  27  30
ATOM     29  C   ALA A   1     -17.119  11.910  39.794  0.00  0.00    +0.238 C 
ATOM     30  N   ALA A   2     -18.096  11.100  39.363  0.00  0.00    -0.297 N 
ATOM     31  H   ALA A   2     -18.364  10.287  39.954  0.00  0.00    +0.150 HD
ATOM     32  O   ALA A   1     -16.791  12.900  39.154  0.00  0.00    -0.274 OA
BRANCH  29  33
ATOM     33  CA  ALA A   1     -16.388  11.658  41.137  0.00  0.00    +0.145 C 
ATOM     34  CB  ALA A   1     -14.897  11.911  40.933  0.00  0.00    +0.028 C 
BRANCH  33  35
ATOM     35  N   ALA A   1     -16.607  10.442  41.933  0.00  0.00    -0.238 NA
ATOM     36  H   ALA A   1     -15.953   9.640  41.835  0.00  0.00    +0.142 HD
ENDBRANCH  33  35
ENDBRANCH  29  33
ENDBRANCH  27  30
ENDBRANCH  23  27
ENDBRANCH  22  24
BRANCH  22  37
ATOM     37  CB  ASN A   3     -15.419  10.724  35.001  0.00  0.00    +0.114 C 
BRANCH  37  38
ATOM     38  CG  ASN A   3     -15.370  10.144  33.574  0.00  0.00    +0.222 C 
ATOM     39  ND2 ASN A   3     -15.677   8.854  33.426  0.00  0.00    -0.329 N 
ATOM     40 HD21 ASN A   3     -15.920   8.279  34.258  0.00  0.00    +0.145 HD
ATOM     41 HD22 ASN A   3     -15.673   8.424  32.479  0.00  0.00    +0.145 HD
ATOM     42  OD1 ASN A   3     -15.075  10.866  32.616  0.00  0.00    -0.275 OA
ENDBRANCH  37  38
ENDBRANCH  22  37
ENDBRANCH  15  22
ENDBRANCH  11  18
ENDBRANCH  10  13
BRANCH  10  43
ATOM     43  CB  GLN A   5      -9.999   7.021  36.481  0.00  0.00    +0.039 C 
BRANCH  43  44
ATOM     44  CG  GLN A   5     -10.076   6.513  35.090  0.00  0.00    +0.087 C 
BRANCH  44  45
ATOM     45  CD  GLN A   5      -9.241   5.259  34.935  0.00  0.00    +0.219 C 
ATOM     46  OE1 GLN A   5      -9.077   4.487  35.882  0.00  0.00    -0.275 OA
ATOM     47  NE2 GLN A   5      -8.709   5.047  33.741  0.00  0.00    -0.329 N 
ATOM     48 HE21 GLN A   5      -8.126   4.202  33.574  0.00  0.00    +0.145 HD
ATOM     49 HE22 GLN A   5      -8.874   5.726  32.970  0.00  0.00    +0.145 HD
ENDBRANCH  44  45
ENDBRANCH  43  44
ENDBRANCH  10  43
ENDBRANCH   6  10
ENDBRANCH   5   7
BRANCH   5  50
ATOM     50  CB  ILE A   6      -8.094  12.141  36.455  0.00  0.00    +0.027 C 
ATOM     51  CG2 ILE A   6      -9.187  12.881  37.063  0.00  0.00    +0.002 C 
BRANCH  50  52
ATOM     52  CG1 ILE A   6      -7.208  11.571  37.525  0.00  0.00    +0.002 C 
ATOM     53  CD1 ILE A   6      -6.263  12.603  38.006  0.00  0.00    +0.000 C 
ENDBRANCH  50  52
ENDBRANCH   5  50
ENDBRANCH   1   5
BRANCH   3  54
ATOM     54  CA  HIS A   7      -6.240  10.547  32.702  0.00  0.00    +0.155 C 
BRANCH  54  55
ATOM     55  C   HIS A   7      -5.211  11.646  32.452  0.00  0.00    +0.241 C 
ATOM     56  O   HIS A   7      -5.504  12.835  32.630  0.00  0.00    -0.273 OA
ATOM     57  N   GLY A   8      -3.984  11.227  32.187  0.00  0.00    -0.295 N 
ATOM     58  H   GLY A   8      -3.783  10.207  32.183  0.00  0.00    +0.150 HD
BRANCH  57  59
ATOM     59  CA  GLY A   8      -2.925  12.155  31.905  0.00  0.00    +0.176 C 
BRANCH  59  60
ATOM     60  C   GLY A   8      -1.983  11.520  30.885  0.00  0.00    +0.243 C 
ATOM     61  N   ILE A   9      -0.691  11.627  31.196  0.00  0.00    -0.297 N 
ATOM     62  H   ILE A   9      -0.445  12.111  32.083  0.00  0.00    +0.150 HD
ATOM     63  O   GLY A   8      -2.404  10.911  29.886  0.00  0.00    -0.273 OA
BRANCH  61  64
ATOM     64  CA  ILE A   9       0.389  11.117  30.387  0.00  0.00    +0.149 C 
BRANCH  64  65
ATOM     65  C   ILE A   9       0.482   9.617  30.342  0.00  0.00    +0.241 C 
ATOM     66  N   GLY A  10       0.655   9.018  31.505  0.00  0.00    -0.295 N 
ATOM     67  H   GLY A  10       0.724   9.569  32.384  0.00  0.00    +0.150 HD
ATOM     68  O   ILE A   9       0.493   9.013  29.265  0.00  0.00    -0.273 OA
BRANCH  66  69
ATOM     69  CA  GLY A  10       0.746   7.578  31.524  0.00  0.00    +0.176 C 
BRANCH  69  70
ATOM     70  C   GLY A  10      -0.579   6.927  31.231  0.00  0.00    +0.243 C 
ATOM     71  N   GLY A  11      -1.678   7.607  31.476  0.00  0.00    -0.295 N 
ATOM     72  H   GLY A  11      -1.610   8.578  31.841  0.00  0.00    +0.150 HD
ATOM     73  O   GLY A  10      -0.609   5.809  30.811  0.00  0.00    -0.273 OA
BRANCH  71  74
ATOM     74  CA  GLY A  11      -2.986   7.017  31.242  0.00  0.00    +0.176 C 
BRANCH  74  75
ATOM     75  C   GLY A  11      -3.951   7.543  32.294  0.00  0.00    +0.243 C 
ATOM     76  O   GLY A  11      -3.807   8.689  32.752  0.00  0.00    -0.273 OA
ATOM     77  N   GLY A  12      -4.930   6.716  32.673  0.00  0.00    -0.295 N 
ATOM     78  H   GLY A  12      -4.992   5.777  32.229  0.00  0.00    +0.150 HD
BRANCH  77  79
ATOM     79  CA  GLY A  12      -5.907   7.078  33.678  0.00  0.00    +0.176 C 
BRANCH  79  80
ATOM     80  C   GLY A  12      -5.483   6.606  35.050  0.00  0.00    +0.243 C 
ATOM     81  N   ILE A  13      -5.890   7.334  36.074  0.00  0.00    -0.298 N 
ATOM     82  H   ILE A  13      -6.472   8.168  35.854  0.00  0.00    +0.150 HD
ATOM     83  O   GLY A  12      -4.843   5.602  35.170  0.00  0.00    -0.273 OA
BRANCH  81  84
ATOM     84  CA  ILE A  13      -5.607   7.087  37.475  0.00  0.00    +0.137 C 
BRANCH  84  85
ATOM     85  C   ILE A  13      -7.003   7.213  38.157  0.00  0.00    +0.227 C 
ATOM     86  O   ILE A  13      -7.817   8.083  37.800  0.00  0.00    -0.286 OA
ENDBRANCH  84  85
BRANCH  84  87
ATOM     87  CB  ILE A  13      -4.572   8.165  37.969  0.00  0.00    +0.026 C 
ATOM     88  CG2 ILE A  13      -4.837   8.677  39.372  0.00  0.00    +0.002 C 
BRANCH  87  89
ATOM     89  CG1 ILE A  13      -3.172   7.579  37.856  0.00  0.00    +0.002 C 
ATOM     90  CD1 ILE A  13      -2.057   8.518  38.268  0.00  0.00    +0.000 C 
ENDBRANCH  87  89
ENDBRANCH  84  87
ENDBRANCH  81  84
ENDBRANCH  79  80
ENDBRANCH  77  79
ENDBRANCH  74  75
ENDBRANCH  71  74
ENDBRANCH  69  70
ENDBRANCH  66  69
ENDBRANCH  64  65
BRANCH  64  91
ATOM     91  CB  ILE A   9       1.704  11.664  30.891  0.00  0.00    +0.027 C 
ATOM     92  CG2 ILE A   9       2.896  11.033  30.113  0.00  0.00    +0.002 C 
BRANCH  91  93
ATOM     93  CG1 ILE A   9       1.667  13.183  30.744  0.00  0.00    +0.002 C 
ATOM     94  CD1 ILE A   9       0.956  13.648  29.485  0.00  0.00    +0.000 C 
ENDBRANCH  91  93
ENDBRANCH  64  91
ENDBRANCH  61  64
ENDBRANCH  59  60
ENDBRANCH  57  59
ENDBRANCH  54  55
BRANCH  54  95
ATOM     95  CB  HIS A   7      -6.755   9.843  31.401  0.00  0.00    +0.076 C 
BRANCH  95  96
ATOM     96  CG  HIS A   7      -7.960  10.482  30.786  0.00  0.00    +0.082 A 
ATOM     97  CD2 HIS A   7      -9.229  10.614  31.239  0.00  0.00    +0.115 A 
ATOM     98  NE2 HIS A   7      -9.903  11.397  30.334  0.00  0.00    -0.221 NA
ATOM     99  CE1 HIS A   7      -9.083  11.724  29.349  0.00  0.00    +0.199 A 
ATOM    100  ND1 HIS A   7      -7.907  11.177  29.596  0.00  0.00    -0.227 NA
ENDBRANCH  95  96
ENDBRANCH  54  95
ENDBRANCH   3  54
TORSDOF 38
REMARK  Name = ../refined-set-2016/1bai/1bai_pocket.pdb
REMARK  228 active torsions:
REMARK  status: ('A' for Active; 'I' for Inactive)
REMARK    1  A    between atoms: _1  and  _3
REMARK    2  A    between atoms: _3  and  _4
REMARK    3  A    between atoms: _3  and  _6
REMARK    4  A    between atoms: _6  and  _7
REMARK    5  A    between atoms: _7  and  _8
REMARK    6  A    between atoms: _8  and  _9
REMARK    7  A    between atoms: _18  and  _20
REMARK    8  A    between atoms: _20  and  _21
REMARK    9  A    between atoms: _20  and  _23
REMARK   10  A    between atoms: _23  and  _24
REMARK   11  A    between atoms: _27  and  _29
REMARK   12  A    between atoms: _29  and  _30
REMARK   13  A    between atoms: _29  and  _32
REMARK   14  A    between atoms: _32  and  _33
REMARK   15  A    between atoms: _36  and  _38
REMARK   16  A    between atoms: _38  and  _39
REMARK   17  A    between atoms: _38  and  _41
REMARK   18  A    between atoms: _41  and  _42
REMARK   19  A    between atoms: _45  and  _47
REMARK   20  A    between atoms: _47  and  _48
REMARK   21  A    between atoms: _47  and  _50
REMARK   22  A    between atoms: _50  and  _51
REMARK   23  A    between atoms: _54  and  _56
REMARK   24  A    between atoms: _56  and  _57
REMARK   25  A    between atoms: _56  and  _59
REMARK   26  A    between atoms: _59  and  _60
REMARK   27  A    between atoms: _63  and  _65
REMARK   28  A    between atoms: _65  and  _66
REMARK   29  A    between atoms: _68  and  _70
REMARK   30  A    between atoms: _70  and  _71
REMARK   31  A    between atoms: _74  and  _76
REMARK   32  A    between atoms: _76  and  _77
REMARK   33  A    between atoms: _76  and  _79
REMARK   34  A    between atoms: _79  and  _80
REMARK   35  A    between atoms: _83  and  _85
REMARK   36  A    between atoms: _85  and  _86
REMARK   37  A    between atoms: _85  and  _88
REMARK   38  A    between atoms: _88  and  _89
REMARK   39  A    between atoms: _92  and  _94
REMARK   40  A    between atoms: _94  and  _95
REMARK   41  A    between atoms: _94  and  _97
REMARK   42  A    between atoms: _97  and  _98
REMARK   43  A    between atoms: _101  and  _103
REMARK   44  A    between atoms: _103  and  _104
REMARK   45  A    between atoms: _103  and  _106
REMARK   46  A    between atoms: _109  and  _111
REMARK   47  A    between atoms: _111  and  _112
REMARK   48  A    between atoms: _115  and  _117
REMARK   49  A    between atoms: _117  and  _118
REMARK   50  A    between atoms: _121  and  _123
REMARK   51  A    between atoms: _123  and  _124
REMARK   52  A    between atoms: _123  and  _126
REMARK   53  A    between atoms: _126  and  _127
REMARK   54  A    between atoms: _133  and  _134
REMARK   55  A    between atoms: _139  and  _141
REMARK   56  A    between atoms: _141  and  _142
REMARK   57  A    between atoms: _141  and  _144
REMARK   58  A    between atoms: _144  and  _145
REMARK   59  A    between atoms: _145  and  _146
REMARK   60  A    between atoms: _151  and  _153
REMARK   61  A    between atoms: _153  and  _154
REMARK   62  A    between atoms: _153  and  _156
REMARK   63  A    between atoms: _156  and  _157
REMARK   64  A    between atoms: _160  and  _162
REMARK   65  A    between atoms: _162  and  _163
REMARK   66  A    between atoms: _162  and  _165
REMARK   67  A    between atoms: _165  and  _166
REMARK   68  A    between atoms: _171  and  _173
REMARK   69  A    between atoms: _173  and  _174
REMARK   70  A    between atoms: _176  and  _178
REMARK   71  A    between atoms: _178  and  _179
REMARK   72  A    between atoms: _178  and  _181
REMARK   73  A    between atoms: _181  and  _182
REMARK   74  A    between atoms: _185  and  _187
REMARK   75  A    between atoms: _187  and  _188
REMARK   76  A    between atoms: _190  and  _192
REMARK   77  A    between atoms: _192  and  _193
REMARK   78  A    between atoms: _195  and  _197
REMARK   79  A    between atoms: _197  and  _198
REMARK   80  A    between atoms: _200  and  _202
REMARK   81  A    between atoms: _202  and  _203
REMARK   82  A    between atoms: _202  and  _205
REMARK   83  A    between atoms: _205  and  _206
REMARK   84  A    between atoms: _209  and  _211
REMARK   85  A    between atoms: _211  and  _212
REMARK   86  A    between atoms: _211  and  _214
REMARK   87  A    between atoms: _217  and  _219
REMARK   88  A    between atoms: _219  and  _220
REMARK   89  A    between atoms: _219  and  _222
REMARK   90  A    between atoms: _222  and  _223
REMARK   91  A    between atoms: _226  and  _228
REMARK   92  A    between atoms: _228  and  _229
REMARK   93  A    between atoms: _232  and  _234
REMARK   94  A    between atoms: _234  and  _235
REMARK   95  A    between atoms: _234  and  _237
REMARK   96  A    between atoms: _237  and  _238
REMARK   97  A    between atoms: _242  and  _243
REMARK   98  A    between atoms: _248  and  _250
REMARK   99  A    between atoms: _250  and  _251
REMARK  100  A    between atoms: _250  and  _253
REMARK  101  A    between atoms: _256  and  _258
REMARK  102  A    between atoms: _258  and  _259
REMARK  103  A    between atoms: _258  and  _261
REMARK  104  A    between atoms: _261  and  _262
REMARK  105  A    between atoms: _267  and  _269
REMARK  106  A    between atoms: _269  and  _270
REMARK  107  A    between atoms: _269  and  _272
REMARK  108  A    between atoms: _272  and  _273
REMARK  109  A    between atoms: _276  and  _278
REMARK  110  A    between atoms: _278  and  _279
REMARK  111  A    between atoms: _278  and  _281
REMARK  112  A    between atoms: _281  and  _282
REMARK  113  A    between atoms: _285  and  _287
REMARK  114  A    between atoms: _287  and  _288
REMARK  115  A    between atoms: _290  and  _292
REMARK  116  A    between atoms: _292  and  _293
REMARK  117  A    between atoms: _292  and  _295
REMARK  118  A    between atoms: _295  and  _296
REMARK  119  A    between atoms: _296  and  _297
REMARK  120  A    between atoms: _297  and  _298
REMARK  121  A    between atoms: _307  and  _309
REMARK  122  A    between atoms: _309  and  _310
REMARK  123  A    between atoms: _309  and  _312
REMARK  124  A    between atoms: _312  and  _313
REMARK  125  A    between atoms: _316  and  _318
REMARK  126  A    between atoms: _318  and  _319
REMARK  127  A    between atoms: _318  and  _321
REMARK  128  A    between atoms: _321  and  _322
REMARK  129  A    between atoms: _327  and  _329
REMARK  130  A    between atoms: _329  and  _330
REMARK  131  A    between atoms: _329  and  _332
REMARK  132  A    between atoms: _332  and  _333
REMARK  133  A    between atoms: _333  and  _334
REMARK  134  A    between atoms: _334  and  _335
REMARK  135  A    between atoms: _344  and  _346
REMARK  136  A    between atoms: _346  and  _347
REMARK  137  A    between atoms: _346  and  _349
REMARK  138  A    between atoms: _349  and  _350
REMARK  139  A    between atoms: _353  and  _355
REMARK  140  A    between atoms: _355  and  _356
REMARK  141  A    between atoms: _355  and  _358
REMARK  142  A    between atoms: _358  and  _359
REMARK  143  A    between atoms: _362  and  _364
REMARK  144  A    between atoms: _364  and  _365
REMARK  145  A    between atoms: _364  and  _367
REMARK  146  A    between atoms: _367  and  _368
REMARK  147  A    between atoms: _371  and  _373
REMARK  148  A    between atoms: _373  and  _374
REMARK  149  A    between atoms: _373  and  _376
REMARK  150  A    between atoms: _376  and  _377
REMARK  151  A    between atoms: _380  and  _382
REMARK  152  A    between atoms: _382  and  _383
REMARK  153  A    between atoms: _382  and  _385
REMARK  154  A    between atoms: _385  and  _386
REMARK  155  A    between atoms: _389  and  _391
REMARK  156  A    between atoms: _391  and  _392
REMARK  157  A    between atoms: _394  and  _396
REMARK  158  A    between atoms: _396  and  _397
REMARK  159  A    between atoms: _400  and  _402
REMARK  160  A    between atoms: _402  and  _403
REMARK  161  A    between atoms: _402  and  _405
REMARK  162  A    between atoms: _405  and  _406
REMARK  163  A    between atoms: _409  and  _411
REMARK  164  A    between atoms: _411  and  _412
REMARK  165  A    between atoms: _411  and  _414
REMARK  166  A    between atoms: _414  and  _415
REMARK  167  A    between atoms: _418  and  _420
REMARK  168  A    between atoms: _420  and  _421
REMARK  169  A    between atoms: _420  and  _423
REMARK  170  A    between atoms: _423  and  _424
REMARK  171  A    between atoms: _427  and  _429
REMARK  172  A    between atoms: _429  and  _430
REMARK  173  A    between atoms: _429  and  _432
REMARK  174  A    between atoms: _435  and  _437
REMARK  175  A    between atoms: _437  and  _438
REMARK  176  A    between atoms: _437  and  _440
REMARK  177  A    between atoms: _440  and  _441
REMARK  178  A    between atoms: _441  and  _442
REMARK  179  A    between atoms: _447  and  _449
REMARK  180  A    between atoms: _449  and  _450
REMARK  181  A    between atoms: _449  and  _452
REMARK  182  A    between atoms: _452  and  _453
REMARK  183  A    between atoms: _456  and  _458
REMARK  184  A    between atoms: _458  and  _459
REMARK  185  A    between atoms: _458  and  _461
REMARK  186  A    between atoms: _461  and  _462
REMARK  187  A    between atoms: _467  and  _469
REMARK  188  A    between atoms: _469  and  _470
REMARK  189  A    between atoms: _472  and  _474
REMARK  190  A    between atoms: _474  and  _475
REMARK  191  A    between atoms: _474  and  _477
REMARK  192  A    between atoms: _477  and  _478
REMARK  193  A    between atoms: _481  and  _483
REMARK  194  A    between atoms: _483  and  _484
REMARK  195  A    between atoms: _486  and  _488
REMARK  196  A    between atoms: _488  and  _489
REMARK  197  A    between atoms: _491  and  _493
REMARK  198  A    between atoms: _493  and  _494
REMARK  199  A    between atoms: _493  and  _496
REMARK  200  A    between atoms: _496  and  _497
REMARK  201  A    between atoms: _500  and  _502
REMARK  202  A    between atoms: _502  and  _503
REMARK  203  A    between atoms: _502  and  _505
REMARK  204  A    between atoms: _505  and  _506
REMARK  205  A    between atoms: _510  and  _511
REMARK  206  A    between atoms: _516  and  _518
REMARK  207  A    between atoms: _518  and  _519
REMARK  208  A    between atoms: _518  and  _521
REMARK  209  A    between atoms: _524  and  _526
REMARK  210  A    between atoms: _526  and  _527
REMARK  211  A    between atoms: _526  and  _529
REMARK  212  A    between atoms: _529  and  _530
REMARK  213  A    between atoms: _535  and  _537
REMARK  214  A    between atoms: _537  and  _538
REMARK  215  A    between atoms: _537  and  _540
REMARK  216  A    between atoms: _540  and  _541
REMARK  217  A    between atoms: _544  and  _546
REMARK  218  A    between atoms: _546  and  _547
REMARK  219  A    between atoms: _546  and  _549
REMARK  220  A    between atoms: _549  and  _550
REMARK  221  A    between atoms: _553  and  _555
REMARK  222  A    between atoms: _555  and  _556
REMARK  223  A    between atoms: _558  and  _560
REMARK  224  A    between atoms: _560  and  _561
REMARK  225  A    between atoms: _560  and  _563
REMARK  226  A    between atoms: _563  and  _564
REMARK  227  A    between atoms: _564  and  _565
REMARK  228  A    between atoms: _565  and  _566
REMARK                            x       y       z     vdW  Elec       q    Type
REMARK                         _______ _______ _______ _____ _____    ______ ____
ROOT
ATOM      1  CA  VAL A   1     -10.204   9.522  41.223  0.00  0.00    +0.133 C 
ENDROOT
BRANCH   1   2
ATOM      2  CB  VAL A   1     -10.333  10.696  40.160  0.00  0.00    +0.023 C 
ATOM      3  CG2 VAL A   1     -10.003  12.034  40.762  0.00  0.00    +0.002 C 
ATOM      4  CG1 VAL A   1     -11.700  10.679  39.514  0.00  0.00    +0.002 C 
ENDBRANCH   1   2
BRANCH   1   5
ATOM      5  N   VAL A   1      -9.914   8.254  40.532  0.00  0.00    -0.239 NA
ATOM      6  H   VAL A   1     -10.678   7.804  39.988  0.00  0.00    +0.142 HD
ENDBRANCH   1   5
BRANCH   1   7
ATOM      7  C   VAL A   1     -11.525   9.484  42.075  0.00  0.00    +0.224 C 
ATOM      8  O   VAL A   1     -12.576   8.929  41.632  0.00  0.00    -0.287 OA
ENDBRANCH   1   7
TORSDOF 3
REMARK  Name = ../refined-set-2016/1bai/1bai_pocket.pdb
REMARK  228 active torsions:
REMARK  status: ('A' for Active; 'I' for Inactive)
REMARK    1  A    between atoms: _1  and  _3
REMARK    2  A    between atoms: _3  and  _4
REMARK    3  A    between atoms: _3  and  _6
REMARK    4  A    between atoms: _6  and  _7
REMARK    5  A    between atoms: _7  and  _8
REMARK    6  A    between atoms: _8  and  _9
REMARK    7  A    between atoms: _18  and  _20
REMARK    8  A    between atoms: _20  and  _21
REMARK    9  A    between atoms: _20  and  _23
REMARK   10  A    between atoms: _23  and  _24
REMARK   11  A    between atoms: _27  and  _29
REMARK   12  A    between atoms: _29  and  _30
REMARK   13  A    between atoms: _29  and  _32
REMARK   14  A    between atoms: _32  and  _33
REMARK   15  A    between atoms: _36  and  _38
REMARK   16  A    between atoms: _38  and  _39
REMARK   17  A    between atoms: _38  and  _41
REMARK   18  A    between atoms: _41  and  _42
REMARK   19  A    between atoms: _45  and  _47
REMARK   20  A    between atoms: _47  and  _48
REMARK   21  A    between atoms: _47  and  _50
REMARK   22  A    between atoms: _50  and  _51
REMARK   23  A    between atoms: _54  and  _56
REMARK   24  A    between atoms: _56  and  _57
REMARK   25  A    between atoms: _56  and  _59
REMARK   26  A    between atoms: _59  and  _60
REMARK   27  A    between atoms: _63  and  _65
REMARK   28  A    between atoms: _65  and  _66
REMARK   29  A    between atoms: _68  and  _70
REMARK   30  A    between atoms: _70  and  _71
REMARK   31  A    between atoms: _74  and  _76
REMARK   32  A    between atoms: _76  and  _77
REMARK   33  A    between atoms: _76  and  _79
REMARK   34  A    between atoms: _79  and  _80
REMARK   35  A    between atoms: _83  and  _85
REMARK   36  A    between atoms: _85  and  _86
REMARK   37  A    between atoms: _85  and  _88
REMARK   38  A    between atoms: _88  and  _89
REMARK   39  A    between atoms: _92  and  _94
REMARK   40  A    between atoms: _94  and  _95
REMARK   41  A    between atoms: _94  and  _97
REMARK   42  A    between atoms: _97  and  _98
REMARK   43  A    between atoms: _101  and  _103
REMARK   44  A    between atoms: _103  and  _104
REMARK   45  A    between atoms: _103  and  _106
REMARK   46  A    between atoms: _109  and  _111
REMARK   47  A    between atoms: _111  and  _112
REMARK   48  A    between atoms: _115  and  _117
REMARK   49  A    between atoms: _117  and  _118
REMARK   50  A    between atoms: _121  and  _123
REMARK   51  A    between atoms: _123  and  _124
REMARK   52  A    between atoms: _123  and  _126
REMARK   53  A    between atoms: _126  and  _127
REMARK   54  A    between atoms: _133  and  _134
REMARK   55  A    between atoms: _139  and  _141
REMARK   56  A    between atoms: _141  and  _142
REMARK   57  A    between atoms: _141  and  _144
REMARK   58  A    between atoms: _144  and  _145
REMARK   59  A    between atoms: _145  and  _146
REMARK   60  A    between atoms: _151  and  _153
REMARK   61  A    between atoms: _153  and  _154
REMARK   62  A    between atoms: _153  and  _156
REMARK   63  A    between atoms: _156  and  _157
REMARK   64  A    between atoms: _160  and  _162
REMARK   65  A    between atoms: _162  and  _163
REMARK   66  A    between atoms: _162  and  _165
REMARK   67  A    between atoms: _165  and  _166
REMARK   68  A    between atoms: _171  and  _173
REMARK   69  A    between atoms: _173  and  _174
REMARK   70  A    between atoms: _176  and  _178
REMARK   71  A    between atoms: _178  and  _179
REMARK   72  A    between atoms: _178  and  _181
REMARK   73  A    between atoms: _181  and  _182
REMARK   74  A    between atoms: _185  and  _187
REMARK   75  A    between atoms: _187  and  _188
REMARK   76  A    between atoms: _190  and  _192
REMARK   77  A    between atoms: _192  and  _193
REMARK   78  A    between atoms: _195  and  _197
REMARK   79  A    between atoms: _197  and  _198
REMARK   80  A    between atoms: _200  and  _202
REMARK   81  A    between atoms: _202  and  _203
REMARK   82  A    between atoms: _202  and  _205
REMARK   83  A    between atoms: _205  and  _206
REMARK   84  A    between atoms: _209  and  _211
REMARK   85  A    between atoms: _211  and  _212
REMARK   86  A    between atoms: _211  and  _214
REMARK   87  A    between atoms: _217  and  _219
REMARK   88  A    between atoms: _219  and  _220
REMARK   89  A    between atoms: _219  and  _222
REMARK   90  A    between atoms: _222  and  _223
REMARK   91  A    between atoms: _226  and  _228
REMARK   92  A    between atoms: _228  and  _229
REMARK   93  A    between atoms: _232  and  _234
REMARK   94  A    between atoms: _234  and  _235
REMARK   95  A    between atoms: _234  and  _237
REMARK   96  A    between atoms: _237  and  _238
REMARK   97  A    between atoms: _242  and  _243
REMARK   98  A    between atoms: _248  and  _250
REMARK   99  A    between atoms: _250  and  _251
REMARK  100  A    between atoms: _250  and  _253
REMARK  101  A    between atoms: _256  and  _258
REMARK  102  A    between atoms: _258  and  _259
REMARK  103  A    between atoms: _258  and  _261
REMARK  104  A    between atoms: _261  and  _262
REMARK  105  A    between atoms: _267  and  _269
REMARK  106  A    between atoms: _269  and  _270
REMARK  107  A    between atoms: _269  and  _272
REMARK  108  A    between atoms: _272  and  _273
REMARK  109  A    between atoms: _276  and  _278
REMARK  110  A    between atoms: _278  and  _279
REMARK  111  A    between atoms: _278  and  _281
REMARK  112  A    between atoms: _281  and  _282
REMARK  113  A    between atoms: _285  and  _287
REMARK  114  A    between atoms: _287  and  _288
REMARK  115  A    between atoms: _290  and  _292
REMARK  116  A    between atoms: _292  and  _293
REMARK  117  A    between atoms: _292  and  _295
REMARK  118  A    between atoms: _295  and  _296
REMARK  119  A    between atoms: _296  and  _297
REMARK  120  A    between atoms: _297  and  _298
REMARK  121  A    between atoms: _307  and  _309
REMARK  122  A    between atoms: _309  and  _310
REMARK  123  A    between atoms: _309  and  _312
REMARK  124  A    between atoms: _312  and  _313
REMARK  125  A    between atoms: _316  and  _318
REMARK  126  A    between atoms: _318  and  _319
REMARK  127  A    between atoms: _318  and  _321
REMARK  128  A    between atoms: _321  and  _322
REMARK  129  A    between atoms: _327  and  _329
REMARK  130  A    between atoms: _329  and  _330
REMARK  131  A    between atoms: _329  and  _332
REMARK  132  A    between atoms: _332  and  _333
REMARK  133  A    between atoms: _333  and  _334
REMARK  134  A    between atoms: _334  and  _335
REMARK  135  A    between atoms: _344  and  _346
REMARK  136  A    between atoms: _346  and  _347
REMARK  137  A    between atoms: _346  and  _349
REMARK  138  A    between atoms: _349  and  _350
REMARK  139  A    between atoms: _353  and  _355
REMARK  140  A    between atoms: _355  and  _356
REMARK  141  A    between atoms: _355  and  _358
REMARK  142  A    between atoms: _358  and  _359
REMARK  143  A    between atoms: _362  and  _364
REMARK  144  A    between atoms: _364  and  _365
REMARK  145  A    between atoms: _364  and  _367
REMARK  146  A    between atoms: _367  and  _368
REMARK  147  A    between atoms: _371  and  _373
REMARK  148  A    between atoms: _373  and  _374
REMARK  149  A    between atoms: _373  and  _376
REMARK  150  A    between atoms: _376  and  _377
REMARK  151  A    between atoms: _380  and  _382
REMARK  152  A    between atoms: _382  and  _383
REMARK  153  A    between atoms: _382  and  _385
REMARK  154  A    between atoms: _385  and  _386
REMARK  155  A    between atoms: _389  and  _391
REMARK  156  A    between atoms: _391  and  _392
REMARK  157  A    between atoms: _394  and  _396
REMARK  158  A    between atoms: _396  and  _397
REMARK  159  A    between atoms: _400  and  _402
REMARK  160  A    between atoms: _402  and  _403
REMARK  161  A    between atoms: _402  and  _405
REMARK  162  A    between atoms: _405  and  _406
REMARK  163  A    between atoms: _409  and  _411
REMARK  164  A    between atoms: _411  and  _412
REMARK  165  A    between atoms: _411  and  _414
REMARK  166  A    between atoms: _414  and  _415
REMARK  167  A    between atoms: _418  and  _420
REMARK  168  A    between atoms: _420  and  _421
REMARK  169  A    between atoms: _420  and  _423
REMARK  170  A    between atoms: _423  and  _424
REMARK  171  A    between atoms: _427  and  _429
REMARK  172  A    between atoms: _429  and  _430
REMARK  173  A    between atoms: _429  and  _432
REMARK  174  A    between atoms: _435  and  _437
REMARK  175  A    between atoms: _437  and  _438
REMARK  176  A    between atoms: _437  and  _440
REMARK  177  A    between atoms: _440  and  _441
REMARK  178  A    between atoms: _441  and  _442
REMARK  179  A    between atoms: _447  and  _449
REMARK  180  A    between atoms: _449  and  _450
REMARK  181  A    between atoms: _449  and  _452
REMARK  182  A    between atoms: _452  and  _453
REMARK  183  A    between atoms: _456  and  _458
REMARK  184  A    between atoms: _458  and  _459
REMARK  185  A    between atoms: _458  and  _461
REMARK  186  A    between atoms: _461  and  _462
REMARK  187  A    between atoms: _467  and  _469
REMARK  188  A    between atoms: _469  and  _470
REMARK  189  A    between atoms: _472  and  _474
REMARK  190  A    between atoms: _474  and  _475
REMARK  191  A    between atoms: _474  and  _477
REMARK  192  A    between atoms: _477  and  _478
REMARK  193  A    between atoms: _481  and  _483
REMARK  194  A    between atoms: _483  and  _484
REMARK  195  A    between atoms: _486  and  _488
REMARK  196  A    between atoms: _488  and  _489
REMARK  197  A    between atoms: _491  and  _493
REMARK  198  A    between atoms: _493  and  _494
REMARK  199  A    between atoms: _493  and  _496
REMARK  200  A    between atoms: _496  and  _497
REMARK  201  A    between atoms: _500  and  _502
REMARK  202  A    between atoms: _502  and  _503
REMARK  203  A    between atoms: _502  and  _505
REMARK  204  A    between atoms: _505  and  _506
REMARK  205  A    between atoms: _510  and  _511
REMARK  206  A    between atoms: _516  and  _518
REMARK  207  A    between atoms: _518  and  _519
REMARK  208  A    between atoms: _518  and  _521
REMARK  209  A    between atoms: _524  and  _526
REMARK  210  A    between atoms: _526  and  _527
REMARK  211  A    between atoms: _526  and  _529
REMARK  212  A    between atoms: _529  and  _530
REMARK  213  A    between atoms: _535  and  _537
REMARK  214  A    between atoms: _537  and  _538
REMARK  215  A    between atoms: _537  and  _540
REMARK  216  A    between atoms: _540  and  _541
REMARK  217  A    between atoms: _544  and  _546
REMARK  218  A    between atoms: _546  and  _547
REMARK  219  A    between atoms: _546  and  _549
REMARK  220  A    between atoms: _549  and  _550
REMARK  221  A    between atoms: _553  and  _555
REMARK  222  A    between atoms: _555  and  _556
REMARK  223  A    between atoms: _558  and  _560
REMARK  224  A    between atoms: _560  and  _561
REMARK  225  A    between atoms: _560  and  _563
REMARK  226  A    between atoms: _563  and  _564
REMARK  227  A    between atoms: _564  and  _565
REMARK  228  A    between atoms: _565  and  _566
REMARK                            x       y       z     vdW  Elec       q    Type
REMARK                         _______ _______ _______ _____ _____    ______ ____
ROOT
ATOM      1  CA  LEU A   1     -10.754  15.566  43.461  0.00  0.00    +0.133 C 
ENDROOT
BRANCH   1   2
ATOM      2  N   LEU A   1     -10.972  16.918  43.935  0.00  0.00    -0.239 NA
ATOM      3  H   LEU A   1     -10.459  17.689  43.461  0.00  0.00    +0.142 HD
ENDBRANCH   1   2
BRANCH   1   4
ATOM      4  C   LEU A   1      -9.487  15.149  44.220  0.00  0.00    +0.224 C 
ATOM      5  O   LEU A   1      -8.696  16.028  44.612  0.00  0.00    -0.287 OA
ENDBRANCH   1   4
BRANCH   1   6
ATOM      6  CB  LEU A   1     -10.525  15.575  41.946  0.00  0.00    +0.025 C 
BRANCH   6   7
ATOM      7  CG  LEU A   1     -11.621  16.160  41.031  0.00  0.00    +0.002 C 
ATOM      8  CD2 LEU A   1     -12.981  15.477  41.178  0.00  0.00    +0.000 C 
ATOM      9  CD1 LEU A   1     -11.122  16.023  39.644  0.00  0.00    +0.000 C 
ENDBRANCH   6   7
ENDBRANCH   1   6
TORSDOF 4
REMARK  Name = ../refined-set-2016/1bai/1bai_pocket.pdb
REMARK  228 active torsions:
REMARK  status: ('A' for Active; 'I' for Inactive)
REMARK    1  A    between atoms: _1  and  _3
REMARK    2  A    between atoms: _3  and  _4
REMARK    3  A    between atoms: _3  and  _6
REMARK    4  A    between atoms: _6  and  _7
REMARK    5  A    between atoms: _7  and  _8
REMARK    6  A    between atoms: _8  and  _9
REMARK    7  A    between atoms: _18  and  _20
REMARK    8  A    between atoms: _20  and  _21
REMARK    9  A    between atoms: _20  and  _23
REMARK   10  A    between atoms: _23  and  _24
REMARK   11  A    between atoms: _27  and  _29
REMARK   12  A    between atoms: _29  and  _30
REMARK   13  A    between atoms: _29  and  _32
REMARK   14  A    between atoms: _32  and  _33
REMARK   15  A    between atoms: _36  and  _38
REMARK   16  A    between atoms: _38  and  _39
REMARK   17  A    between atoms: _38  and  _41
REMARK   18  A    between atoms: _41  and  _42
REMARK   19  A    between atoms: _45  and  _47
REMARK   20  A    between atoms: _47  and  _48
REMARK   21  A    between atoms: _47  and  _50
REMARK   22  A    between atoms: _50  and  _51
REMARK   23  A    between atoms: _54  and  _56
REMARK   24  A    between atoms: _56  and  _57
REMARK   25  A    between atoms: _56  and  _59
REMARK   26  A    between atoms: _59  and  _60
REMARK   27  A    between atoms: _63  and  _65
REMARK   28  A    between atoms: _65  and  _66
REMARK   29  A    between atoms: _68  and  _70
REMARK   30  A    between atoms: _70  and  _71
REMARK   31  A    between atoms: _74  and  _76
REMARK   32  A    between atoms: _76  and  _77
REMARK   33  A    between atoms: _76  and  _79
REMARK   34  A    between atoms: _79  and  _80
REMARK   35  A    between atoms: _83  and  _85
REMARK   36  A    between atoms: _85  and  _86
REMARK   37  A    between atoms: _85  and  _88
REMARK   38  A    between atoms: _88  and  _89
REMARK   39  A    between atoms: _92  and  _94
REMARK   40  A    between atoms: _94  and  _95
REMARK   41  A    between atoms: _94  and  _97
REMARK   42  A    between atoms: _97  and  _98
REMARK   43  A    between atoms: _101  and  _103
REMARK   44  A    between atoms: _103  and  _104
REMARK   45  A    between atoms: _103  and  _106
REMARK   46  A    between atoms: _109  and  _111
REMARK   47  A    between atoms: _111  and  _112
REMARK   48  A    between atoms: _115  and  _117
REMARK   49  A    between atoms: _117  and  _118
REMARK   50  A    between atoms: _121  and  _123
REMARK   51  A    between atoms: _123  and  _124
REMARK   52  A    between atoms: _123  and  _126
REMARK   53  A    between atoms: _126  and  _127
REMARK   54  A    between atoms: _133  and  _134
REMARK   55  A    between atoms: _139  and  _141
REMARK   56  A    between atoms: _141  and  _142
REMARK   57  A    between atoms: _141  and  _144
REMARK   58  A    between atoms: _144  and  _145
REMARK   59  A    between atoms: _145  and  _146
REMARK   60  A    between atoms: _151  and  _153
REMARK   61  A    between atoms: _153  and  _154
REMARK   62  A    between atoms: _153  and  _156
REMARK   63  A    between atoms: _156  and  _157
REMARK   64  A    between atoms: _160  and  _162
REMARK   65  A    between atoms: _162  and  _163
REMARK   66  A    between atoms: _162  and  _165
REMARK   67  A    between atoms: _165  and  _166
REMARK   68  A    between atoms: _171  and  _173
REMARK   69  A    between atoms: _173  and  _174
REMARK   70  A    between atoms: _176  and  _178
REMARK   71  A    between atoms: _178  and  _179
REMARK   72  A    between atoms: _178  and  _181
REMARK   73  A    between atoms: _181  and  _182
REMARK   74  A    between atoms: _185  and  _187
REMARK   75  A    between atoms: _187  and  _188
REMARK   76  A    between atoms: _190  and  _192
REMARK   77  A    between atoms: _192  and  _193
REMARK   78  A    between atoms: _195  and  _197
REMARK   79  A    between atoms: _197  and  _198
REMARK   80  A    between atoms: _200  and  _202
REMARK   81  A    between atoms: _202  and  _203
REMARK   82  A    between atoms: _202  and  _205
REMARK   83  A    between atoms: _205  and  _206
REMARK   84  A    between atoms: _209  and  _211
REMARK   85  A    between atoms: _211  and  _212
REMARK   86  A    between atoms: _211  and  _214
REMARK   87  A    between atoms: _217  and  _219
REMARK   88  A    between atoms: _219  and  _220
REMARK   89  A    between atoms: _219  and  _222
REMARK   90  A    between atoms: _222  and  _223
REMARK   91  A    between atoms: _226  and  _228
REMARK   92  A    between atoms: _228  and  _229
REMARK   93  A    between atoms: _232  and  _234
REMARK   94  A    between atoms: _234  and  _235
REMARK   95  A    between atoms: _234  and  _237
REMARK   96  A    between atoms: _237  and  _238
REMARK   97  A    between atoms: _242  and  _243
REMARK   98  A    between atoms: _248  and  _250
REMARK   99  A    between atoms: _250  and  _251
REMARK  100  A    between atoms: _250  and  _253
REMARK  101  A    between atoms: _256  and  _258
REMARK  102  A    between atoms: _258  and  _259
REMARK  103  A    between atoms: _258  and  _261
REMARK  104  A    between atoms: _261  and  _262
REMARK  105  A    between atoms: _267  and  _269
REMARK  106  A    between atoms: _269  and  _270
REMARK  107  A    between atoms: _269  and  _272
REMARK  108  A    between atoms: _272  and  _273
REMARK  109  A    between atoms: _276  and  _278
REMARK  110  A    between atoms: _278  and  _279
REMARK  111  A    between atoms: _278  and  _281
REMARK  112  A    between atoms: _281  and  _282
REMARK  113  A    between atoms: _285  and  _287
REMARK  114  A    between atoms: _287  and  _288
REMARK  115  A    between atoms: _290  and  _292
REMARK  116  A    between atoms: _292  and  _293
REMARK  117  A    between atoms: _292  and  _295
REMARK  118  A    between atoms: _295  and  _296
REMARK  119  A    between atoms: _296  and  _297
REMARK  120  A    between atoms: _297  and  _298
REMARK  121  A    between atoms: _307  and  _309
REMARK  122  A    between atoms: _309  and  _310
REMARK  123  A    between atoms: _309  and  _312
REMARK  124  A    between atoms: _312  and  _313
REMARK  125  A    between atoms: _316  and  _318
REMARK  126  A    between atoms: _318  and  _319
REMARK  127  A    between atoms: _318  and  _321
REMARK  128  A    between atoms: _321  and  _322
REMARK  129  A    between atoms: _327  and  _329
REMARK  130  A    between atoms: _329  and  _330
REMARK  131  A    between atoms: _329  and  _332
REMARK  132  A    between atoms: _332  and  _333
REMARK  133  A    between atoms: _333  and  _334
REMARK  134  A    between atoms: _334  and  _335
REMARK  135  A    between atoms: _344  and  _346
REMARK  136  A    between atoms: _346  and  _347
REMARK  137  A    between atoms: _346  and  _349
REMARK  138  A    between atoms: _349  and  _350
REMARK  139  A    between atoms: _353  and  _355
REMARK  140  A    between atoms: _355  and  _356
REMARK  141  A    between atoms: _355  and  _358
REMARK  142  A    between atoms: _358  and  _359
REMARK  143  A    between atoms: _362  and  _364
REMARK  144  A    between atoms: _364  and  _365
REMARK  145  A    between atoms: _364  and  _367
REMARK  146  A    between atoms: _367  and  _368
REMARK  147  A    between atoms: _371  and  _373
REMARK  148  A    between atoms: _373  and  _374
REMARK  149  A    between atoms: _373  and  _376
REMARK  150  A    between atoms: _376  and  _377
REMARK  151  A    between atoms: _380  and  _382
REMARK  152  A    between atoms: _382  and  _383
REMARK  153  A    between atoms: _382  and  _385
REMARK  154  A    between atoms: _385  and  _386
REMARK  155  A    between atoms: _389  and  _391
REMARK  156  A    between atoms: _391  and  _392
REMARK  157  A    between atoms: _394  and  _396
REMARK  158  A    between atoms: _396  and  _397
REMARK  159  A    between atoms: _400  and  _402
REMARK  160  A    between atoms: _402  and  _403
REMARK  161  A    between atoms: _402  and  _405
REMARK  162  A    between atoms: _405  and  _406
REMARK  163  A    between atoms: _409  and  _411
REMARK  164  A    between atoms: _411  and  _412
REMARK  165  A    between atoms: _411  and  _414
REMARK  166  A    between atoms: _414  and  _415
REMARK  167  A    between atoms: _418  and  _420
REMARK  168  A    between atoms: _420  and  _421
REMARK  169  A    between atoms: _420  and  _423
REMARK  170  A    between atoms: _423  and  _424
REMARK  171  A    between atoms: _427  and  _429
REMARK  172  A    between atoms: _429  and  _430
REMARK  173  A    between atoms: _429  and  _432
REMARK  174  A    between atoms: _435  and  _437
REMARK  175  A    between atoms: _437  and  _438
REMARK  176  A    between atoms: _437  and  _440
REMARK  177  A    between atoms: _440  and  _441
REMARK  178  A    between atoms: _441  and  _442
REMARK  179  A    between atoms: _447  and  _449
REMARK  180  A    between atoms: _449  and  _450
REMARK  181  A    between atoms: _449  and  _452
REMARK  182  A    between atoms: _452  and  _453
REMARK  183  A    between atoms: _456  and  _458
REMARK  184  A    between atoms: _458  and  _459
REMARK  185  A    between atoms: _458  and  _461
REMARK  186  A    between atoms: _461  and  _462
REMARK  187  A    between atoms: _467  and  _469
REMARK  188  A    between atoms: _469  and  _470
REMARK  189  A    between atoms: _472  and  _474
REMARK  190  A    between atoms: _474  and  _475
REMARK  191  A    between atoms: _474  and  _477
REMARK  192  A    between atoms: _477  and  _478
REMARK  193  A    between atoms: _481  and  _483
REMARK  194  A    between atoms: _483  and  _484
REMARK  195  A    between atoms: _486  and  _488
REMARK  196  A    between atoms: _488  and  _489
REMARK  197  A    between atoms: _491  and  _493
REMARK  198  A    between atoms: _493  and  _494
REMARK  199  A    between atoms: _493  and  _496
REMARK  200  A    between atoms: _496  and  _497
REMARK  201  A    between atoms: _500  and  _502
REMARK  202  A    between atoms: _502  and  _503
REMARK  203  A    between atoms: _502  and  _505
REMARK  204  A    between atoms: _505  and  _506
REMARK  205  A    between atoms: _510  and  _511
REMARK  206  A    between atoms: _516  and  _518
REMARK  207  A    between atoms: _518  and  _519
REMARK  208  A    between atoms: _518  and  _521
REMARK  209  A    between atoms: _524  and  _526
REMARK  210  A    between atoms: _526  and  _527
REMARK  211  A    between atoms: _526  and  _529
REMARK  212  A    between atoms: _529  and  _530
REMARK  213  A    between atoms: _535  and  _537
REMARK  214  A    between atoms: _537  and  _538
REMARK  215  A    between atoms: _537  and  _540
REMARK  216  A    between atoms: _540  and  _541
REMARK  217  A    between atoms: _544  and  _546
REMARK  218  A    between atoms: _546  and  _547
REMARK  219  A    between atoms: _546  and  _549
REMARK  220  A    between atoms: _549  and  _550
REMARK  221  A    between atoms: _553  and  _555
REMARK  222  A    between atoms: _555  and  _556
REMARK  223  A    between atoms: _558  and  _560
REMARK  224  A    between atoms: _560  and  _561
REMARK  225  A    between atoms: _560  and  _563
REMARK  226  A    between atoms: _563  and  _564
REMARK  227  A    between atoms: _564  and  _565
REMARK  228  A    between atoms: _565  and  _566
REMARK                            x       y       z     vdW  Elec       q    Type
REMARK                         _______ _______ _______ _____ _____    ______ ____
ROOT
ATOM      1  CA  ALA A   1      -6.089  10.559  43.694  0.00  0.00    +0.133 C 
ATOM      2  CB  ALA A   1      -6.337  10.835  42.186  0.00  0.00    +0.027 C 
ENDROOT
BRANCH   1   3
ATOM      3  N   ALA A   1      -6.614  11.683  44.419  0.00  0.00    -0.239 NA
ATOM      4  H   ALA A   1      -5.940  12.337  44.865  0.00  0.00    +0.142 HD
ENDBRANCH   1   3
BRANCH   1   5
ATOM      5  C   ALA A   1      -4.576  10.447  43.971  0.00  0.00    +0.224 C 
ATOM      6  O   ALA A   1      -4.006  11.345  44.566  0.00  0.00    -0.287 OA
ENDBRANCH   1   5
TORSDOF 2
REMARK  Name = ../refined-set-2016/1bai/1bai_pocket.pdb
REMARK  228 active torsions:
REMARK  status: ('A' for Active; 'I' for Inactive)
REMARK    1  A    between atoms: _1  and  _3
REMARK    2  A    between atoms: _3  and  _4
REMARK    3  A    between atoms: _3  and  _6
REMARK    4  A    between atoms: _6  and  _7
REMARK    5  A    between atoms: _7  and  _8
REMARK    6  A    between atoms: _8  and  _9
REMARK    7  A    between atoms: _18  and  _20
REMARK    8  A    between atoms: _20  and  _21
REMARK    9  A    between atoms: _20  and  _23
REMARK   10  A    between atoms: _23  and  _24
REMARK   11  A    between atoms: _27  and  _29
REMARK   12  A    between atoms: _29  and  _30
REMARK   13  A    between atoms: _29  and  _32
REMARK   14  A    between atoms: _32  and  _33
REMARK   15  A    between atoms: _36  and  _38
REMARK   16  A    between atoms: _38  and  _39
REMARK   17  A    between atoms: _38  and  _41
REMARK   18  A    between atoms: _41  and  _42
REMARK   19  A    between atoms: _45  and  _47
REMARK   20  A    between atoms: _47  and  _48
REMARK   21  A    between atoms: _47  and  _50
REMARK   22  A    between atoms: _50  and  _51
REMARK   23  A    between atoms: _54  and  _56
REMARK   24  A    between atoms: _56  and  _57
REMARK   25  A    between atoms: _56  and  _59
REMARK   26  A    between atoms: _59  and  _60
REMARK   27  A    between atoms: _63  and  _65
REMARK   28  A    between atoms: _65  and  _66
REMARK   29  A    between atoms: _68  and  _70
REMARK   30  A    between atoms: _70  and  _71
REMARK   31  A    between atoms: _74  and  _76
REMARK   32  A    between atoms: _76  and  _77
REMARK   33  A    between atoms: _76  and  _79
REMARK   34  A    between atoms: _79  and  _80
REMARK   35  A    between atoms: _83  and  _85
REMARK   36  A    between atoms: _85  and  _86
REMARK   37  A    between atoms: _85  and  _88
REMARK   38  A    between atoms: _88  and  _89
REMARK   39  A    between atoms: _92  and  _94
REMARK   40  A    between atoms: _94  and  _95
REMARK   41  A    between atoms: _94  and  _97
REMARK   42  A    between atoms: _97  and  _98
REMARK   43  A    between atoms: _101  and  _103
REMARK   44  A    between atoms: _103  and  _104
REMARK   45  A    between atoms: _103  and  _106
REMARK   46  A    between atoms: _109  and  _111
REMARK   47  A    between atoms: _111  and  _112
REMARK   48  A    between atoms: _115  and  _117
REMARK   49  A    between atoms: _117  and  _118
REMARK   50  A    between atoms: _121  and  _123
REMARK   51  A    between atoms: _123  and  _124
REMARK   52  A    between atoms: _123  and  _126
REMARK   53  A    between atoms: _126  and  _127
REMARK   54  A    between atoms: _133  and  _134
REMARK   55  A    between atoms: _139  and  _141
REMARK   56  A    between atoms: _141  and  _142
REMARK   57  A    between atoms: _141  and  _144
REMARK   58  A    between atoms: _144  and  _145
REMARK   59  A    between atoms: _145  and  _146
REMARK   60  A    between atoms: _151  and  _153
REMARK   61  A    between atoms: _153  and  _154
REMARK   62  A    between atoms: _153  and  _156
REMARK   63  A    between atoms: _156  and  _157
REMARK   64  A    between atoms: _160  and  _162
REMARK   65  A    between atoms: _162  and  _163
REMARK   66  A    between atoms: _162  and  _165
REMARK   67  A    between atoms: _165  and  _166
REMARK   68  A    between atoms: _171  and  _173
REMARK   69  A    between atoms: _173  and  _174
REMARK   70  A    between atoms: _176  and  _178
REMARK   71  A    between atoms: _178  and  _179
REMARK   72  A    between atoms: _178  and  _181
REMARK   73  A    between atoms: _181  and  _182
REMARK   74  A    between atoms: _185  and  _187
REMARK   75  A    between atoms: _187  and  _188
REMARK   76  A    between atoms: _190  and  _192
REMARK   77  A    between atoms: _192  and  _193
REMARK   78  A    between atoms: _195  and  _197
REMARK   79  A    between atoms: _197  and  _198
REMARK   80  A    between atoms: _200  and  _202
REMARK   81  A    between atoms: _202  and  _203
REMARK   82  A    between atoms: _202  and  _205
REMARK   83  A    between atoms: _205  and  _206
REMARK   84  A    between atoms: _209  and  _211
REMARK   85  A    between atoms: _211  and  _212
REMARK   86  A    between atoms: _211  and  _214
REMARK   87  A    between atoms: _217  and  _219
REMARK   88  A    between atoms: _219  and  _220
REMARK   89  A    between atoms: _219  and  _222
REMARK   90  A    between atoms: _222  and  _223
REMARK   91  A    between atoms: _226  and  _228
REMARK   92  A    between atoms: _228  and  _229
REMARK   93  A    between atoms: _232  and  _234
REMARK   94  A    between atoms: _234  and  _235
REMARK   95  A    between atoms: _234  and  _237
REMARK   96  A    between atoms: _237  and  _238
REMARK   97  A    between atoms: _242  and  _243
REMARK   98  A    between atoms: _248  and  _250
REMARK   99  A    between atoms: _250  and  _251
REMARK  100  A    between atoms: _250  and  _253
REMARK  101  A    between atoms: _256  and  _258
REMARK  102  A    between atoms: _258  and  _259
REMARK  103  A    between atoms: _258  and  _261
REMARK  104  A    between atoms: _261  and  _262
REMARK  105  A    between atoms: _267  and  _269
REMARK  106  A    between atoms: _269  and  _270
REMARK  107  A    between atoms: _269  and  _272
REMARK  108  A    between atoms: _272  and  _273
REMARK  109  A    between atoms: _276  and  _278
REMARK  110  A    between atoms: _278  and  _279
REMARK  111  A    between atoms: _278  and  _281
REMARK  112  A    between atoms: _281  and  _282
REMARK  113  A    between atoms: _285  and  _287
REMARK  114  A    between atoms: _287  and  _288
REMARK  115  A    between atoms: _290  and  _292
REMARK  116  A    between atoms: _292  and  _293
REMARK  117  A    between atoms: _292  and  _295
REMARK  118  A    between atoms: _295  and  _296
REMARK  119  A    between atoms: _296  and  _297
REMARK  120  A    between atoms: _297  and  _298
REMARK  121  A    between atoms: _307  and  _309
REMARK  122  A    between atoms: _309  and  _310
REMARK  123  A    between atoms: _309  and  _312
REMARK  124  A    between atoms: _312  and  _313
REMARK  125  A    between atoms: _316  and  _318
REMARK  126  A    between atoms: _318  and  _319
REMARK  127  A    between atoms: _318  and  _321
REMARK  128  A    between atoms: _321  and  _322
REMARK  129  A    between atoms: _327  and  _329
REMARK  130  A    between atoms: _329  and  _330
REMARK  131  A    between atoms: _329  and  _332
REMARK  132  A    between atoms: _332  and  _333
REMARK  133  A    between atoms: _333  and  _334
REMARK  134  A    between atoms: _334  and  _335
REMARK  135  A    between atoms: _344  and  _346
REMARK  136  A    between atoms: _346  and  _347
REMARK  137  A    between atoms: _346  and  _349
REMARK  138  A    between atoms: _349  and  _350
REMARK  139  A    between atoms: _353  and  _355
REMARK  140  A    between atoms: _355  and  _356
REMARK  141  A    between atoms: _355  and  _358
REMARK  142  A    between atoms: _358  and  _359
REMARK  143  A    between atoms: _362  and  _364
REMARK  144  A    between atoms: _364  and  _365
REMARK  145  A    between atoms: _364  and  _367
REMARK  146  A    between atoms: _367  and  _368
REMARK  147  A    between atoms: _371  and  _373
REMARK  148  A    between atoms: _373  and  _374
REMARK  149  A    between atoms: _373  and  _376
REMARK  150  A    between atoms: _376  and  _377
REMARK  151  A    between atoms: _380  and  _382
REMARK  152  A    between atoms: _382  and  _383
REMARK  153  A    between atoms: _382  and  _385
REMARK  154  A    between atoms: _385  and  _386
REMARK  155  A    between atoms: _389  and  _391
REMARK  156  A    between atoms: _391  and  _392
REMARK  157  A    between atoms: _394  and  _396
REMARK  158  A    between atoms: _396  and  _397
REMARK  159  A    between atoms: _400  and  _402
REMARK  160  A    between atoms: _402  and  _403
REMARK  161  A    between atoms: _402  and  _405
REMARK  162  A    between atoms: _405  and  _406
REMARK  163  A    between atoms: _409  and  _411
REMARK  164  A    between atoms: _411  and  _412
REMARK  165  A    between atoms: _411  and  _414
REMARK  166  A    between atoms: _414  and  _415
REMARK  167  A    between atoms: _418  and  _420
REMARK  168  A    between atoms: _420  and  _421
REMARK  169  A    between atoms: _420  and  _423
REMARK  170  A    between atoms: _423  and  _424
REMARK  171  A    between atoms: _427  and  _429
REMARK  172  A    between atoms: _429  and  _430
REMARK  173  A    between atoms: _429  and  _432
REMARK  174  A    between atoms: _435  and  _437
REMARK  175  A    between atoms: _437  and  _438
REMARK  176  A    between atoms: _437  and  _440
REMARK  177  A    between atoms: _440  and  _441
REMARK  178  A    between atoms: _441  and  _442
REMARK  179  A    between atoms: _447  and  _449
REMARK  180  A    between atoms: _449  and  _450
REMARK  181  A    between atoms: _449  and  _452
REMARK  182  A    between atoms: _452  and  _453
REMARK  183  A    between atoms: _456  and  _458
REMARK  184  A    between atoms: _458  and  _459
REMARK  185  A    between atoms: _458  and  _461
REMARK  186  A    between atoms: _461  and  _462
REMARK  187  A    between atoms: _467  and  _469
REMARK  188  A    between atoms: _469  and  _470
REMARK  189  A    between atoms: _472  and  _474
REMARK  190  A    between atoms: _474  and  _475
REMARK  191  A    between atoms: _474  and  _477
REMARK  192  A    between atoms: _477  and  _478
REMARK  193  A    between atoms: _481  and  _483
REMARK  194  A    between atoms: _483  and  _484
REMARK  195  A    between atoms: _486  and  _488
REMARK  196  A    between atoms: _488  and  _489
REMARK  197  A    between atoms: _491  and  _493
REMARK  198  A    between atoms: _493  and  _494
REMARK  199  A    between atoms: _493  and  _496
REMARK  200  A    between atoms: _496  and  _497
REMARK  201  A    between atoms: _500  and  _502
REMARK  202  A    between atoms: _502  and  _503
REMARK  203  A    between atoms: _502  and  _505
REMARK  204  A    between atoms: _505  and  _506
REMARK  205  A    between atoms: _510  and  _511
REMARK  206  A    between atoms: _516  and  _518
REMARK  207  A    between atoms: _518  and  _519
REMARK  208  A    between atoms: _518  and  _521
REMARK  209  A    between atoms: _524  and  _526
REMARK  210  A    between atoms: _526  and  _527
REMARK  211  A    between atoms: _526  and  _529
REMARK  212  A    between atoms: _529  and  _530
REMARK  213  A    between atoms: _535  and  _537
REMARK  214  A    between atoms: _537  and  _538
REMARK  215  A    between atoms: _537  and  _540
REMARK  216  A    between atoms: _540  and  _541
REMARK  217  A    between atoms: _544  and  _546
REMARK  218  A    between atoms: _546  and  _547
REMARK  219  A    between atoms: _546  and  _549
REMARK  220  A    between atoms: _549  and  _550
REMARK  221  A    between atoms: _553  and  _555
REMARK  222  A    between atoms: _555  and  _556
REMARK  223  A    between atoms: _558  and  _560
REMARK  224  A    between atoms: _560  and  _561
REMARK  225  A    between atoms: _560  and  _563
REMARK  226  A    between atoms: _563  and  _564
REMARK  227  A    between atoms: _564  and  _565
REMARK  228  A    between atoms: _565  and  _566
REMARK                            x       y       z     vdW  Elec       q    Type
REMARK                         _______ _______ _______ _____ _____    ______ ____
ROOT
ATOM      1  CA  ILE A   5      -2.057  20.590  41.375  0.00  0.00    +0.149 C 
ENDROOT
BRANCH   1   4
ATOM      2  C   ASN A   4      -1.007  19.536  43.342  0.00  0.00    +0.241 C 
ATOM      3  O   ASN A   4       0.014  20.192  43.238  0.00  0.00    -0.273 OA
ATOM      4  N   ILE A   5      -2.008  19.625  42.471  0.00  0.00    -0.297 N 
ATOM      5  H   ILE A   5      -2.806  18.966  42.577  0.00  0.00    +0.150 HD
BRANCH   2   6
ATOM      6  CA  ASN A   4      -1.099  18.434  44.431  0.00  0.00    +0.158 C 
BRANCH   6   8
ATOM      7  C   VAL A   3       0.454  16.851  43.490  0.00  0.00    +0.241 C 
ATOM      8  N   ASN A   4       0.254  17.870  44.325  0.00  0.00    -0.297 N 
ATOM      9  H   ASN A   4       1.037  18.257  44.889  0.00  0.00    +0.150 HD
ATOM     10  O   VAL A   3      -0.491  16.297  42.931  0.00  0.00    -0.273 OA
BRANCH   7  11
ATOM     11  CA  VAL A   3       1.895  16.335  43.285  0.00  0.00    +0.149 C 
BRANCH  11  14
ATOM     12  C   PRO A   2       2.787  14.055  43.144  0.00  0.00    +0.241 C 
ATOM     13  O   PRO A   2       3.579  14.208  44.081  0.00  0.00    -0.273 OA
ATOM     14  N   VAL A   3       1.877  14.963  42.798  0.00  0.00    -0.297 N 
ATOM     15  H   VAL A   3       1.116  14.679  42.148  0.00  0.00    +0.150 HD
BRANCH  12  19
ATOM     16  C   THR A   1       0.300  12.396  42.665  0.00  0.00    +0.244 C 
ATOM     17  O   THR A   1       0.466  12.304  43.912  0.00  0.00    -0.273 OA
ATOM     18  N   PRO A   2       1.331  12.587  41.827  0.00  0.00    -0.272 N 
ATOM     19  CA  PRO A   2       2.647  12.705  42.447  0.00  0.00    +0.152 C 
ATOM     20  CB  PRO A   2       3.596  12.597  41.250  0.00  0.00    +0.031 C 
ATOM     21  CG  PRO A   2       2.740  12.920  40.038  0.00  0.00    +0.024 C 
ATOM     22  CD  PRO A   2       1.451  12.277  40.389  0.00  0.00    +0.094 C 
BRANCH  16  23
ATOM     23  CA  THR A   1      -1.112  12.284  42.035  0.00  0.00    +0.172 C 
BRANCH  23  24
ATOM     24  N   THR A   1      -1.798  11.311  42.859  0.00  0.00    -0.236 NA
ATOM     25  H   THR A   1      -2.410  11.664  43.622  0.00  0.00    +0.142 HD
ENDBRANCH  23  24
BRANCH  23  26
ATOM     26  CB  THR A   1      -1.752  13.667  42.233  0.00  0.00    +0.135 C 
ATOM     27  CG2 THR A   1      -1.431  14.572  41.120  0.00  0.00    +0.034 C 
BRANCH  26  28
ATOM     28  OG1 THR A   1      -3.158  13.525  42.343  0.00  0.00    -0.383 OA
ATOM     29  HG1 THR A   1      -3.371  12.948  43.119  0.00  0.00    +0.210 HD
ENDBRANCH  26  28
ENDBRANCH  23  26
ENDBRANCH  16  23
ENDBRANCH  12  19
ENDBRANCH  11  14
BRANCH  11  30
ATOM     30  CB  VAL A   3       2.648  17.182  42.153  0.00  0.00    +0.027 C 
ATOM     31  CG2 VAL A   3       4.138  17.098  42.342  0.00  0.00    +0.002 C 
ATOM     32  CG1 VAL A   3       2.217  18.650  42.094  0.00  0.00    +0.002 C 
ENDBRANCH  11  30
ENDBRANCH   7  11
ENDBRANCH   6   8
BRANCH   6  33
ATOM     33  CB  ASN A   4      -1.422  19.055  45.816  0.00  0.00    +0.114 C 
BRANCH  33  34
ATOM     34  CG  ASN A   4      -0.766  18.303  47.016  0.00  0.00    +0.222 C 
ATOM     35  ND2 ASN A   4      -1.462  17.329  47.558  0.00  0.00    -0.329 N 
ATOM     36 HD21 ASN A   4      -1.115  16.858  48.418  0.00  0.00    +0.145 HD
ATOM     37 HD22 ASN A   4      -2.360  17.029  47.127  0.00  0.00    +0.145 HD
ATOM     38  OD1 ASN A   4       0.305  18.688  47.498  0.00  0.00    -0.275 OA
ENDBRANCH  33  34
ENDBRANCH   6  33
ENDBRANCH   2   6
ENDBRANCH   1   4
BRANCH   1  39
ATOM     39  C   ILE A   5      -3.347  21.435  41.423  0.00  0.00    +0.241 C 
ATOM     40  O   ILE A   5      -4.436  20.910  41.733  0.00  0.00    -0.273 OA
ATOM     41  N   LEU A   6      -3.225  22.741  41.188  0.00  0.00    -0.297 N 
ATOM     42  H   LEU A   6      -2.282  23.146  41.018  0.00  0.00    +0.150 HD
BRANCH  41  43
ATOM     43  CA  LEU A   6      -4.385  23.601  41.167  0.00  0.00    +0.149 C 
BRANCH  43  44
ATOM     44  C   LEU A   6      -4.626  23.780  39.682  0.00  0.00    +0.241 C 
ATOM     45  N   GLY A   7      -5.734  23.246  39.204  0.00  0.00    -0.295 N 
ATOM     46  H   GLY A   7      -6.372  22.739  39.850  0.00  0.00    +0.150 HD
ATOM     47  O   LEU A   6      -3.731  24.191  38.964  0.00  0.00    -0.273 OA
BRANCH  45  48
ATOM     48  CA  GLY A   7      -6.081  23.347  37.815  0.00  0.00    +0.176 C 
BRANCH  48  49
ATOM     49  C   GLY A   7      -6.808  24.588  37.387  0.00  0.00    +0.243 C 
ATOM     50  O   GLY A   7      -7.056  25.505  38.167  0.00  0.00    -0.273 OA
ATOM     51  N   ARG A   8      -7.158  24.629  36.117  0.00  0.00    -0.297 N 
ATOM     52  H   ARG A   8      -6.960  23.815  35.501  0.00  0.00    +0.150 HD
BRANCH  51  53
ATOM     53  CA  ARG A   8      -7.813  25.792  35.575  0.00  0.00    +0.149 C 
BRANCH  53  54
ATOM     54  C   ARG A   8      -9.080  26.277  36.254  0.00  0.00    +0.241 C 
ATOM     55  N   ASP A   9      -9.706  25.444  37.089  0.00  0.00    -0.298 N 
ATOM     56  H   ASP A   9      -9.325  24.487  37.229  0.00  0.00    +0.150 HD
ATOM     57  O   ARG A   8      -9.473  27.418  36.025  0.00  0.00    -0.273 OA
BRANCH  55  58
ATOM     58  CA  ASP A   9     -10.919  25.844  37.815  0.00  0.00    +0.148 C 
BRANCH  58  59
ATOM     59  C   ASP A   9     -10.506  26.826  38.922  0.00  0.00    +0.227 C 
ATOM     60  O   ASP A   9     -11.093  27.912  39.081  0.00  0.00    -0.286 OA
ENDBRANCH  58  59
BRANCH  58  61
ATOM     61  CB  ASP A   9     -11.653  24.622  38.389  0.00  0.00    +0.142 C 
BRANCH  61  62
ATOM     62  CG  ASP A   9     -10.736  23.657  39.158  0.00  0.00    +0.367 C 
ATOM     63  OD2 ASP A   9     -11.230  22.627  39.774  0.00  0.00    -0.246 OA
ATOM     64  OD1 ASP A   9      -9.508  23.924  39.155  0.00  0.00    -0.246 OA
ENDBRANCH  61  62
ENDBRANCH  58  61
ENDBRANCH  55  58
ENDBRANCH  53  54
BRANCH  53  65
ATOM     65  CB  ARG A   8      -7.997  25.698  34.074  0.00  0.00    +0.033 C 
BRANCH  65  66
ATOM     66  CG  ARG A   8      -6.750  25.917  33.322  0.00  0.00    +0.045 C 
BRANCH  66  67
ATOM     67  CD  ARG A   8      -7.053  26.148  31.878  0.00  0.00    +0.174 C 
BRANCH  67  68
ATOM     68  NE  ARG A   8      -8.190  25.337  31.482  0.00  0.00    -0.265 N 
ATOM     69  HE  ARG A   8      -9.133  25.776  31.508  0.00  0.00    +0.259 HD
ATOM     70  CZ  ARG A   8      -8.105  24.074  31.090  0.00  0.00    +0.342 C 
ATOM     71  NH2 ARG A   8      -6.915  23.540  30.886  0.00  0.00    -0.292 N 
ATOM     72 HH21 ARG A   8      -6.057  24.110  31.033  0.00  0.00    +0.255 HD
ATOM     73 HH22 ARG A   8      -6.835  22.550  30.578  0.00  0.00    +0.255 HD
ATOM     74  NH1 ARG A   8      -9.226  23.384  30.793  0.00  0.00    -0.292 N 
ATOM     75 HH11 ARG A   8     -10.156  23.843  30.872  0.00  0.00    +0.255 HD
ATOM     76 HH12 ARG A   8      -9.160  22.393  30.485  0.00  0.00    +0.255 HD
ENDBRANCH  67  68
ENDBRANCH  66  67
ENDBRANCH  65  66
ENDBRANCH  53  65
ENDBRANCH  51  53
ENDBRANCH  48  49
ENDBRANCH  45  48
ENDBRANCH  43  44
BRANCH  43  77
ATOM     77  CB  LEU A   6      -4.091  24.944  41.810  0.00  0.00    +0.029 C 
BRANCH  77  78
ATOM     78  CG  LEU A   6      -3.685  25.051  43.285  0.00  0.00    +0.002 C 
ATOM     79  CD2 LEU A   6      -4.759  24.615  44.233  0.00  0.00    +0.000 C 
ATOM     80  CD1 LEU A   6      -3.357  26.554  43.505  0.00  0.00    +0.000 C 
ENDBRANCH  77  78
ENDBRANCH  43  77
ENDBRANCH  41  43
ENDBRANCH   1  39
BRANCH   1  81
ATOM     81  CB  ILE A   5      -1.996  19.887  39.950  0.00  0.00    +0.027 C 
ATOM     82  CG2 ILE A   5      -0.942  18.762  39.914  0.00  0.00    +0.002 C 
BRANCH  81  83
ATOM     83  CG1 ILE A   5      -3.317  19.172  39.635  0.00  0.00    +0.002 C 
ATOM     84  CD1 ILE A   5      -3.545  18.920  38.123  0.00  0.00    +0.000 C 
ENDBRANCH  81  83
ENDBRANCH   1  81
TORSDOF 32
REMARK  Name = ../refined-set-2016/1bai/1bai_pocket.pdb
REMARK  228 active torsions:
REMARK  status: ('A' for Active; 'I' for Inactive)
REMARK    1  A    between atoms: _1  and  _3
REMARK    2  A    between atoms: _3  and  _4
REMARK    3  A    between atoms: _3  and  _6
REMARK    4  A    between atoms: _6  and  _7
REMARK    5  A    between atoms: _7  and  _8
REMARK    6  A    between atoms: _8  and  _9
REMARK    7  A    between atoms: _18  and  _20
REMARK    8  A    between atoms: _20  and  _21
REMARK    9  A    between atoms: _20  and  _23
REMARK   10  A    between atoms: _23  and  _24
REMARK   11  A    between atoms: _27  and  _29
REMARK   12  A    between atoms: _29  and  _30
REMARK   13  A    between atoms: _29  and  _32
REMARK   14  A    between atoms: _32  and  _33
REMARK   15  A    between atoms: _36  and  _38
REMARK   16  A    between atoms: _38  and  _39
REMARK   17  A    between atoms: _38  and  _41
REMARK   18  A    between atoms: _41  and  _42
REMARK   19  A    between atoms: _45  and  _47
REMARK   20  A    between atoms: _47  and  _48
REMARK   21  A    between atoms: _47  and  _50
REMARK   22  A    between atoms: _50  and  _51
REMARK   23  A    between atoms: _54  and  _56
REMARK   24  A    between atoms: _56  and  _57
REMARK   25  A    between atoms: _56  and  _59
REMARK   26  A    between atoms: _59  and  _60
REMARK   27  A    between atoms: _63  and  _65
REMARK   28  A    between atoms: _65  and  _66
REMARK   29  A    between atoms: _68  and  _70
REMARK   30  A    between atoms: _70  and  _71
REMARK   31  A    between atoms: _74  and  _76
REMARK   32  A    between atoms: _76  and  _77
REMARK   33  A    between atoms: _76  and  _79
REMARK   34  A    between atoms: _79  and  _80
REMARK   35  A    between atoms: _83  and  _85
REMARK   36  A    between atoms: _85  and  _86
REMARK   37  A    between atoms: _85  and  _88
REMARK   38  A    between atoms: _88  and  _89
REMARK   39  A    between atoms: _92  and  _94
REMARK   40  A    between atoms: _94  and  _95
REMARK   41  A    between atoms: _94  and  _97
REMARK   42  A    between atoms: _97  and  _98
REMARK   43  A    between atoms: _101  and  _103
REMARK   44  A    between atoms: _103  and  _104
REMARK   45  A    between atoms: _103  and  _106
REMARK   46  A    between atoms: _109  and  _111
REMARK   47  A    between atoms: _111  and  _112
REMARK   48  A    between atoms: _115  and  _117
REMARK   49  A    between atoms: _117  and  _118
REMARK   50  A    between atoms: _121  and  _123
REMARK   51  A    between atoms: _123  and  _124
REMARK   52  A    between atoms: _123  and  _126
REMARK   53  A    between atoms: _126  and  _127
REMARK   54  A    between atoms: _133  and  _134
REMARK   55  A    between atoms: _139  and  _141
REMARK   56  A    between atoms: _141  and  _142
REMARK   57  A    between atoms: _141  and  _144
REMARK   58  A    between atoms: _144  and  _145
REMARK   59  A    between atoms: _145  and  _146
REMARK   60  A    between atoms: _151  and  _153
REMARK   61  A    between atoms: _153  and  _154
REMARK   62  A    between atoms: _153  and  _156
REMARK   63  A    between atoms: _156  and  _157
REMARK   64  A    between atoms: _160  and  _162
REMARK   65  A    between atoms: _162  and  _163
REMARK   66  A    between atoms: _162  and  _165
REMARK   67  A    between atoms: _165  and  _166
REMARK   68  A    between atoms: _171  and  _173
REMARK   69  A    between atoms: _173  and  _174
REMARK   70  A    between atoms: _176  and  _178
REMARK   71  A    between atoms: _178  and  _179
REMARK   72  A    between atoms: _178  and  _181
REMARK   73  A    between atoms: _181  and  _182
REMARK   74  A    between atoms: _185  and  _187
REMARK   75  A    between atoms: _187  and  _188
REMARK   76  A    between atoms: _190  and  _192
REMARK   77  A    between atoms: _192  and  _193
REMARK   78  A    between atoms: _195  and  _197
REMARK   79  A    between atoms: _197  and  _198
REMARK   80  A    between atoms: _200  and  _202
REMARK   81  A    between atoms: _202  and  _203
REMARK   82  A    between atoms: _202  and  _205
REMARK   83  A    between atoms: _205  and  _206
REMARK   84  A    between atoms: _209  and  _211
REMARK   85  A    between atoms: _211  and  _212
REMARK   86  A    between atoms: _211  and  _214
REMARK   87  A    between atoms: _217  and  _219
REMARK   88  A    between atoms: _219  and  _220
REMARK   89  A    between atoms: _219  and  _222
REMARK   90  A    between atoms: _222  and  _223
REMARK   91  A    between atoms: _226  and  _228
REMARK   92  A    between atoms: _228  and  _229
REMARK   93  A    between atoms: _232  and  _234
REMARK   94  A    between atoms: _234  and  _235
REMARK   95  A    between atoms: _234  and  _237
REMARK   96  A    between atoms: _237  and  _238
REMARK   97  A    between atoms: _242  and  _243
REMARK   98  A    between atoms: _248  and  _250
REMARK   99  A    between atoms: _250  and  _251
REMARK  100  A    between atoms: _250  and  _253
REMARK  101  A    between atoms: _256  and  _258
REMARK  102  A    between atoms: _258  and  _259
REMARK  103  A    between atoms: _258  and  _261
REMARK  104  A    between atoms: _261  and  _262
REMARK  105  A    between atoms: _267  and  _269
REMARK  106  A    between atoms: _269  and  _270
REMARK  107  A    between atoms: _269  and  _272
REMARK  108  A    between atoms: _272  and  _273
REMARK  109  A    between atoms: _276  and  _278
REMARK  110  A    between atoms: _278  and  _279
REMARK  111  A    between atoms: _278  and  _281
REMARK  112  A    between atoms: _281  and  _282
REMARK  113  A    between atoms: _285  and  _287
REMARK  114  A    between atoms: _287  and  _288
REMARK  115  A    between atoms: _290  and  _292
REMARK  116  A    between atoms: _292  and  _293
REMARK  117  A    between atoms: _292  and  _295
REMARK  118  A    between atoms: _295  and  _296
REMARK  119  A    between atoms: _296  and  _297
REMARK  120  A    between atoms: _297  and  _298
REMARK  121  A    between atoms: _307  and  _309
REMARK  122  A    between atoms: _309  and  _310
REMARK  123  A    between atoms: _309  and  _312
REMARK  124  A    between atoms: _312  and  _313
REMARK  125  A    between atoms: _316  and  _318
REMARK  126  A    between atoms: _318  and  _319
REMARK  127  A    between atoms: _318  and  _321
REMARK  128  A    between atoms: _321  and  _322
REMARK  129  A    between atoms: _327  and  _329
REMARK  130  A    between atoms: _329  and  _330
REMARK  131  A    between atoms: _329  and  _332
REMARK  132  A    between atoms: _332  and  _333
REMARK  133  A    between atoms: _333  and  _334
REMARK  134  A    between atoms: _334  and  _335
REMARK  135  A    between atoms: _344  and  _346
REMARK  136  A    between atoms: _346  and  _347
REMARK  137  A    between atoms: _346  and  _349
REMARK  138  A    between atoms: _349  and  _350
REMARK  139  A    between atoms: _353  and  _355
REMARK  140  A    between atoms: _355  and  _356
REMARK  141  A    between atoms: _355  and  _358
REMARK  142  A    between atoms: _358  and  _359
REMARK  143  A    between atoms: _362  and  _364
REMARK  144  A    between atoms: _364  and  _365
REMARK  145  A    between atoms: _364  and  _367
REMARK  146  A    between atoms: _367  and  _368
REMARK  147  A    between atoms: _371  and  _373
REMARK  148  A    between atoms: _373  and  _374
REMARK  149  A    between atoms: _373  and  _376
REMARK  150  A    between atoms: _376  and  _377
REMARK  151  A    between atoms: _380  and  _382
REMARK  152  A    between atoms: _382  and  _383
REMARK  153  A    between atoms: _382  and  _385
REMARK  154  A    between atoms: _385  and  _386
REMARK  155  A    between atoms: _389  and  _391
REMARK  156  A    between atoms: _391  and  _392
REMARK  157  A    between atoms: _394  and  _396
REMARK  158  A    between atoms: _396  and  _397
REMARK  159  A    between atoms: _400  and  _402
REMARK  160  A    between atoms: _402  and  _403
REMARK  161  A    between atoms: _402  and  _405
REMARK  162  A    between atoms: _405  and  _406
REMARK  163  A    between atoms: _409  and  _411
REMARK  164  A    between atoms: _411  and  _412
REMARK  165  A    between atoms: _411  and  _414
REMARK  166  A    between atoms: _414  and  _415
REMARK  167  A    between atoms: _418  and  _420
REMARK  168  A    between atoms: _420  and  _421
REMARK  169  A    between atoms: _420  and  _423
REMARK  170  A    between atoms: _423  and  _424
REMARK  171  A    between atoms: _427  and  _429
REMARK  172  A    between atoms: _429  and  _430
REMARK  173  A    between atoms: _429  and  _432
REMARK  174  A    between atoms: _435  and  _437
REMARK  175  A    between atoms: _437  and  _438
REMARK  176  A    between atoms: _437  and  _440
REMARK  177  A    between atoms: _440  and  _441
REMARK  178  A    between atoms: _441  and  _442
REMARK  179  A    between atoms: _447  and  _449
REMARK  180  A    between atoms: _449  and  _450
REMARK  181  A    between atoms: _449  and  _452
REMARK  182  A    between atoms: _452  and  _453
REMARK  183  A    between atoms: _456  and  _458
REMARK  184  A    between atoms: _458  and  _459
REMARK  185  A    between atoms: _458  and  _461
REMARK  186  A    between atoms: _461  and  _462
REMARK  187  A    between atoms: _467  and  _469
REMARK  188  A    between atoms: _469  and  _470
REMARK  189  A    between atoms: _472  and  _474
REMARK  190  A    between atoms: _474  and  _475
REMARK  191  A    between atoms: _474  and  _477
REMARK  192  A    between atoms: _477  and  _478
REMARK  193  A    between atoms: _481  and  _483
REMARK  194  A    between atoms: _483  and  _484
REMARK  195  A    between atoms: _486  and  _488
REMARK  196  A    between atoms: _488  and  _489
REMARK  197  A    between atoms: _491  and  _493
REMARK  198  A    between atoms: _493  and  _494
REMARK  199  A    between atoms: _493  and  _496
REMARK  200  A    between atoms: _496  and  _497
REMARK  201  A    between atoms: _500  and  _502
REMARK  202  A    between atoms: _502  and  _503
REMARK  203  A    between atoms: _502  and  _505
REMARK  204  A    between atoms: _505  and  _506
REMARK  205  A    between atoms: _510  and  _511
REMARK  206  A    between atoms: _516  and  _518
REMARK  207  A    between atoms: _518  and  _519
REMARK  208  A    between atoms: _518  and  _521
REMARK  209  A    between atoms: _524  and  _526
REMARK  210  A    between atoms: _526  and  _527
REMARK  211  A    between atoms: _526  and  _529
REMARK  212  A    between atoms: _529  and  _530
REMARK  213  A    between atoms: _535  and  _537
REMARK  214  A    between atoms: _537  and  _538
REMARK  215  A    between atoms: _537  and  _540
REMARK  216  A    between atoms: _540  and  _541
REMARK  217  A    between atoms: _544  and  _546
REMARK  218  A    between atoms: _546  and  _547
REMARK  219  A    between atoms: _546  and  _549
REMARK  220  A    between atoms: _549  and  _550
REMARK  221  A    between atoms: _553  and  _555
REMARK  222  A    between atoms: _555  and  _556
REMARK  223  A    between atoms: _558  and  _560
REMARK  224  A    between atoms: _560  and  _561
REMARK  225  A    between atoms: _560  and  _563
REMARK  226  A    between atoms: _563  and  _564
REMARK  227  A    between atoms: _564  and  _565
REMARK  228  A    between atoms: _565  and  _566
REMARK                            x       y       z     vdW  Elec       q    Type
REMARK                         _______ _______ _______ _____ _____    ______ ____
ROOT
ATOM      1  CB  HIS A   1     -12.617  25.617  34.557  0.00  0.00    +0.072 C 
ENDROOT
BRANCH   1   2
ATOM      2  CG  HIS A   1     -12.726  24.130  34.664  0.00  0.00    +0.082 A 
ATOM      3  ND1 HIS A   1     -13.859  23.486  35.116  0.00  0.00    -0.227 NA
ATOM      4  CE1 HIS A   1     -13.662  22.178  35.084  0.00  0.00    +0.199 A 
ATOM      5  NE2 HIS A   1     -12.443  21.954  34.627  0.00  0.00    -0.221 NA
ATOM      6  CD2 HIS A   1     -11.839  23.157  34.355  0.00  0.00    +0.115 A 
ENDBRANCH   1   2
BRANCH   1   7
ATOM      7  CA  HIS A   1     -11.685  26.057  33.429  0.00  0.00    +0.139 C 
BRANCH   7   8
ATOM      8  N   HIS A   1     -11.715  27.478  33.225  0.00  0.00    -0.239 NA
ATOM      9  H   HIS A   1     -12.452  28.058  33.674  0.00  0.00    +0.142 HD
ENDBRANCH   7   8
BRANCH   7  10
ATOM     10  C   HIS A   1     -12.275  25.608  32.112  0.00  0.00    +0.224 C 
ATOM     11  O   HIS A   1     -11.823  24.638  31.497  0.00  0.00    -0.287 OA
ENDBRANCH   7  10
ENDBRANCH   1   7
TORSDOF 4
REMARK  Name = ../refined-set-2016/1bai/1bai_pocket.pdb
REMARK  228 active torsions:
REMARK  status: ('A' for Active; 'I' for Inactive)
REMARK    1  A    between atoms: _1  and  _3
REMARK    2  A    between atoms: _3  and  _4
REMARK    3  A    between atoms: _3  and  _6
REMARK    4  A    between atoms: _6  and  _7
REMARK    5  A    between atoms: _7  and  _8
REMARK    6  A    between atoms: _8  and  _9
REMARK    7  A    between atoms: _18  and  _20
REMARK    8  A    between atoms: _20  and  _21
REMARK    9  A    between atoms: _20  and  _23
REMARK   10  A    between atoms: _23  and  _24
REMARK   11  A    between atoms: _27  and  _29
REMARK   12  A    between atoms: _29  and  _30
REMARK   13  A    between atoms: _29  and  _32
REMARK   14  A    between atoms: _32  and  _33
REMARK   15  A    between atoms: _36  and  _38
REMARK   16  A    between atoms: _38  and  _39
REMARK   17  A    between atoms: _38  and  _41
REMARK   18  A    between atoms: _41  and  _42
REMARK   19  A    between atoms: _45  and  _47
REMARK   20  A    between atoms: _47  and  _48
REMARK   21  A    between atoms: _47  and  _50
REMARK   22  A    between atoms: _50  and  _51
REMARK   23  A    between atoms: _54  and  _56
REMARK   24  A    between atoms: _56  and  _57
REMARK   25  A    between atoms: _56  and  _59
REMARK   26  A    between atoms: _59  and  _60
REMARK   27  A    between atoms: _63  and  _65
REMARK   28  A    between atoms: _65  and  _66
REMARK   29  A    between atoms: _68  and  _70
REMARK   30  A    between atoms: _70  and  _71
REMARK   31  A    between atoms: _74  and  _76
REMARK   32  A    between atoms: _76  and  _77
REMARK   33  A    between atoms: _76  and  _79
REMARK   34  A    between atoms: _79  and  _80
REMARK   35  A    between atoms: _83  and  _85
REMARK   36  A    between atoms: _85  and  _86
REMARK   37  A    between atoms: _85  and  _88
REMARK   38  A    between atoms: _88  and  _89
REMARK   39  A    between atoms: _92  and  _94
REMARK   40  A    between atoms: _94  and  _95
REMARK   41  A    between atoms: _94  and  _97
REMARK   42  A    between atoms: _97  and  _98
REMARK   43  A    between atoms: _101  and  _103
REMARK   44  A    between atoms: _103  and  _104
REMARK   45  A    between atoms: _103  and  _106
REMARK   46  A    between atoms: _109  and  _111
REMARK   47  A    between atoms: _111  and  _112
REMARK   48  A    between atoms: _115  and  _117
REMARK   49  A    between atoms: _117  and  _118
REMARK   50  A    between atoms: _121  and  _123
REMARK   51  A    between atoms: _123  and  _124
REMARK   52  A    between atoms: _123  and  _126
REMARK   53  A    between atoms: _126  and  _127
REMARK   54  A    between atoms: _133  and  _134
REMARK   55  A    between atoms: _139  and  _141
REMARK   56  A    between atoms: _141  and  _142
REMARK   57  A    between atoms: _141  and  _144
REMARK   58  A    between atoms: _144  and  _145
REMARK   59  A    between atoms: _145  and  _146
REMARK   60  A    between atoms: _151  and  _153
REMARK   61  A    between atoms: _153  and  _154
REMARK   62  A    between atoms: _153  and  _156
REMARK   63  A    between atoms: _156  and  _157
REMARK   64  A    between atoms: _160  and  _162
REMARK   65  A    between atoms: _162  and  _163
REMARK   66  A    between atoms: _162  and  _165
REMARK   67  A    between atoms: _165  and  _166
REMARK   68  A    between atoms: _171  and  _173
REMARK   69  A    between atoms: _173  and  _174
REMARK   70  A    between atoms: _176  and  _178
REMARK   71  A    between atoms: _178  and  _179
REMARK   72  A    between atoms: _178  and  _181
REMARK   73  A    between atoms: _181  and  _182
REMARK   74  A    between atoms: _185  and  _187
REMARK   75  A    between atoms: _187  and  _188
REMARK   76  A    between atoms: _190  and  _192
REMARK   77  A    between atoms: _192  and  _193
REMARK   78  A    between atoms: _195  and  _197
REMARK   79  A    between atoms: _197  and  _198
REMARK   80  A    between atoms: _200  and  _202
REMARK   81  A    between atoms: _202  and  _203
REMARK   82  A    between atoms: _202  and  _205
REMARK   83  A    between atoms: _205  and  _206
REMARK   84  A    between atoms: _209  and  _211
REMARK   85  A    between atoms: _211  and  _212
REMARK   86  A    between atoms: _211  and  _214
REMARK   87  A    between atoms: _217  and  _219
REMARK   88  A    between atoms: _219  and  _220
REMARK   89  A    between atoms: _219  and  _222
REMARK   90  A    between atoms: _222  and  _223
REMARK   91  A    between atoms: _226  and  _228
REMARK   92  A    between atoms: _228  and  _229
REMARK   93  A    between atoms: _232  and  _234
REMARK   94  A    between atoms: _234  and  _235
REMARK   95  A    between atoms: _234  and  _237
REMARK   96  A    between atoms: _237  and  _238
REMARK   97  A    between atoms: _242  and  _243
REMARK   98  A    between atoms: _248  and  _250
REMARK   99  A    between atoms: _250  and  _251
REMARK  100  A    between atoms: _250  and  _253
REMARK  101  A    between atoms: _256  and  _258
REMARK  102  A    between atoms: _258  and  _259
REMARK  103  A    between atoms: _258  and  _261
REMARK  104  A    between atoms: _261  and  _262
REMARK  105  A    between atoms: _267  and  _269
REMARK  106  A    between atoms: _269  and  _270
REMARK  107  A    between atoms: _269  and  _272
REMARK  108  A    between atoms: _272  and  _273
REMARK  109  A    between atoms: _276  and  _278
REMARK  110  A    between atoms: _278  and  _279
REMARK  111  A    between atoms: _278  and  _281
REMARK  112  A    between atoms: _281  and  _282
REMARK  113  A    between atoms: _285  and  _287
REMARK  114  A    between atoms: _287  and  _288
REMARK  115  A    between atoms: _290  and  _292
REMARK  116  A    between atoms: _292  and  _293
REMARK  117  A    between atoms: _292  and  _295
REMARK  118  A    between atoms: _295  and  _296
REMARK  119  A    between atoms: _296  and  _297
REMARK  120  A    between atoms: _297  and  _298
REMARK  121  A    between atoms: _307  and  _309
REMARK  122  A    between atoms: _309  and  _310
REMARK  123  A    between atoms: _309  and  _312
REMARK  124  A    between atoms: _312  and  _313
REMARK  125  A    between atoms: _316  and  _318
REMARK  126  A    between atoms: _318  and  _319
REMARK  127  A    between atoms: _318  and  _321
REMARK  128  A    between atoms: _321  and  _322
REMARK  129  A    between atoms: _327  and  _329
REMARK  130  A    between atoms: _329  and  _330
REMARK  131  A    between atoms: _329  and  _332
REMARK  132  A    between atoms: _332  and  _333
REMARK  133  A    between atoms: _333  and  _334
REMARK  134  A    between atoms: _334  and  _335
REMARK  135  A    between atoms: _344  and  _346
REMARK  136  A    between atoms: _346  and  _347
REMARK  137  A    between atoms: _346  and  _349
REMARK  138  A    between atoms: _349  and  _350
REMARK  139  A    between atoms: _353  and  _355
REMARK  140  A    between atoms: _355  and  _356
REMARK  141  A    between atoms: _355  and  _358
REMARK  142  A    between atoms: _358  and  _359
REMARK  143  A    between atoms: _362  and  _364
REMARK  144  A    between atoms: _364  and  _365
REMARK  145  A    between atoms: _364  and  _367
REMARK  146  A    between atoms: _367  and  _368
REMARK  147  A    between atoms: _371  and  _373
REMARK  148  A    between atoms: _373  and  _374
REMARK  149  A    between atoms: _373  and  _376
REMARK  150  A    between atoms: _376  and  _377
REMARK  151  A    between atoms: _380  and  _382
REMARK  152  A    between atoms: _382  and  _383
REMARK  153  A    between atoms: _382  and  _385
REMARK  154  A    between atoms: _385  and  _386
REMARK  155  A    between atoms: _389  and  _391
REMARK  156  A    between atoms: _391  and  _392
REMARK  157  A    between atoms: _394  and  _396
REMARK  158  A    between atoms: _396  and  _397
REMARK  159  A    between atoms: _400  and  _402
REMARK  160  A    between atoms: _402  and  _403
REMARK  161  A    between atoms: _402  and  _405
REMARK  162  A    between atoms: _405  and  _406
REMARK  163  A    between atoms: _409  and  _411
REMARK  164  A    between atoms: _411  and  _412
REMARK  165  A    between atoms: _411  and  _414
REMARK  166  A    between atoms: _414  and  _415
REMARK  167  A    between atoms: _418  and  _420
REMARK  168  A    between atoms: _420  and  _421
REMARK  169  A    between atoms: _420  and  _423
REMARK  170  A    between atoms: _423  and  _424
REMARK  171  A    between atoms: _427  and  _429
REMARK  172  A    between atoms: _429  and  _430
REMARK  173  A    between atoms: _429  and  _432
REMARK  174  A    between atoms: _435  and  _437
REMARK  175  A    between atoms: _437  and  _438
REMARK  176  A    between atoms: _437  and  _440
REMARK  177  A    between atoms: _440  and  _441
REMARK  178  A    between atoms: _441  and  _442
REMARK  179  A    between atoms: _447  and  _449
REMARK  180  A    between atoms: _449  and  _450
REMARK  181  A    between atoms: _449  and  _452
REMARK  182  A    between atoms: _452  and  _453
REMARK  183  A    between atoms: _456  and  _458
REMARK  184  A    between atoms: _458  and  _459
REMARK  185  A    between atoms: _458  and  _461
REMARK  186  A    between atoms: _461  and  _462
REMARK  187  A    between atoms: _467  and  _469
REMARK  188  A    between atoms: _469  and  _470
REMARK  189  A    between atoms: _472  and  _474
REMARK  190  A    between atoms: _474  and  _475
REMARK  191  A    between atoms: _474  and  _477
REMARK  192  A    between atoms: _477  and  _478
REMARK  193  A    between atoms: _481  and  _483
REMARK  194  A    between atoms: _483  and  _484
REMARK  195  A    between atoms: _486  and  _488
REMARK  196  A    between atoms: _488  and  _489
REMARK  197  A    between atoms: _491  and  _493
REMARK  198  A    between atoms: _493  and  _494
REMARK  199  A    between atoms: _493  and  _496
REMARK  200  A    between atoms: _496  and  _497
REMARK  201  A    between atoms: _500  and  _502
REMARK  202  A    between atoms: _502  and  _503
REMARK  203  A    between atoms: _502  and  _505
REMARK  204  A    between atoms: _505  and  _506
REMARK  205  A    between atoms: _510  and  _511
REMARK  206  A    between atoms: _516  and  _518
REMARK  207  A    between atoms: _518  and  _519
REMARK  208  A    between atoms: _518  and  _521
REMARK  209  A    between atoms: _524  and  _526
REMARK  210  A    between atoms: _526  and  _527
REMARK  211  A    between atoms: _526  and  _529
REMARK  212  A    between atoms: _529  and  _530
REMARK  213  A    between atoms: _535  and  _537
REMARK  214  A    between atoms: _537  and  _538
REMARK  215  A    between atoms: _537  and  _540
REMARK  216  A    between atoms: _540  and  _541
REMARK  217  A    between atoms: _544  and  _546
REMARK  218  A    between atoms: _546  and  _547
REMARK  219  A    between atoms: _546  and  _549
REMARK  220  A    between atoms: _549  and  _550
REMARK  221  A    between atoms: _553  and  _555
REMARK  222  A    between atoms: _555  and  _556
REMARK  223  A    between atoms: _558  and  _560
REMARK  224  A    between atoms: _560  and  _561
REMARK  225  A    between atoms: _560  and  _563
REMARK  226  A    between atoms: _563  and  _564
REMARK  227  A    between atoms: _564  and  _565
REMARK  228  A    between atoms: _565  and  _566
REMARK                            x       y       z     vdW  Elec       q    Type
REMARK                         _______ _______ _______ _____ _____    ______ ____
ROOT
ATOM      1  NE  ARG A   1      -9.092  21.586  25.051  0.00  0.00    -0.265 N 
ATOM      2  HE  ARG A   1      -9.805  22.342  25.010  0.00  0.00    +0.259 HD
ATOM      3  CZ  ARG A   1      -8.928  20.830  23.947  0.00  0.00    +0.342 C 
ATOM      4  NH2 ARG A   1      -8.003  19.862  23.902  0.00  0.00    -0.292 N 
ATOM      5 HH21 ARG A   1      -7.397  19.683  24.728  0.00  0.00    +0.255 HD
ATOM      6 HH22 ARG A   1      -7.891  19.289  23.041  0.00  0.00    +0.255 HD
ATOM      7  NH1 ARG A   1      -9.797  20.930  22.934  0.00  0.00    -0.292 N 
ATOM      8 HH11 ARG A   1     -10.598  21.590  22.999  0.00  0.00    +0.255 HD
ATOM      9 HH12 ARG A   1      -9.672  20.347  22.082  0.00  0.00    +0.255 HD
ENDROOT
BRANCH   1  10
ATOM     10  CD  ARG A   1      -8.341  21.429  26.317  0.00  0.00    +0.174 C 
BRANCH  10  11
ATOM     11  CG  ARG A   1      -8.499  22.591  27.282  0.00  0.00    +0.045 C 
BRANCH  11  12
ATOM     12  CB  ARG A   1      -7.691  23.769  26.787  0.00  0.00    +0.029 C 
BRANCH  12  13
ATOM     13  CA  ARG A   1      -8.178  25.170  27.212  0.00  0.00    +0.133 C 
BRANCH  13  14
ATOM     14  N   ARG A   1      -9.624  25.248  27.015  0.00  0.00    -0.239 NA
ATOM     15  H   ARG A   1     -10.080  24.541  26.403  0.00  0.00    +0.142 HD
ENDBRANCH  13  14
BRANCH  13  16
ATOM     16  C   ARG A   1      -7.241  26.253  26.547  0.00  0.00    +0.224 C 
ATOM     17  O   ARG A   1      -7.585  26.887  25.532  0.00  0.00    -0.287 OA
ENDBRANCH  13  16
ENDBRANCH  12  13
ENDBRANCH  11  12
ENDBRANCH  10  11
ENDBRANCH   1  10
TORSDOF 6
REMARK  Name = ../refined-set-2016/1bai/1bai_pocket.pdb
REMARK  228 active torsions:
REMARK  status: ('A' for Active; 'I' for Inactive)
REMARK    1  A    between atoms: _1  and  _3
REMARK    2  A    between atoms: _3  and  _4
REMARK    3  A    between atoms: _3  and  _6
REMARK    4  A    between atoms: _6  and  _7
REMARK    5  A    between atoms: _7  and  _8
REMARK    6  A    between atoms: _8  and  _9
REMARK    7  A    between atoms: _18  and  _20
REMARK    8  A    between atoms: _20  and  _21
REMARK    9  A    between atoms: _20  and  _23
REMARK   10  A    between atoms: _23  and  _24
REMARK   11  A    between atoms: _27  and  _29
REMARK   12  A    between atoms: _29  and  _30
REMARK   13  A    between atoms: _29  and  _32
REMARK   14  A    between atoms: _32  and  _33
REMARK   15  A    between atoms: _36  and  _38
REMARK   16  A    between atoms: _38  and  _39
REMARK   17  A    between atoms: _38  and  _41
REMARK   18  A    between atoms: _41  and  _42
REMARK   19  A    between atoms: _45  and  _47
REMARK   20  A    between atoms: _47  and  _48
REMARK   21  A    between atoms: _47  and  _50
REMARK   22  A    between atoms: _50  and  _51
REMARK   23  A    between atoms: _54  and  _56
REMARK   24  A    between atoms: _56  and  _57
REMARK   25  A    between atoms: _56  and  _59
REMARK   26  A    between atoms: _59  and  _60
REMARK   27  A    between atoms: _63  and  _65
REMARK   28  A    between atoms: _65  and  _66
REMARK   29  A    between atoms: _68  and  _70
REMARK   30  A    between atoms: _70  and  _71
REMARK   31  A    between atoms: _74  and  _76
REMARK   32  A    between atoms: _76  and  _77
REMARK   33  A    between atoms: _76  and  _79
REMARK   34  A    between atoms: _79  and  _80
REMARK   35  A    between atoms: _83  and  _85
REMARK   36  A    between atoms: _85  and  _86
REMARK   37  A    between atoms: _85  and  _88
REMARK   38  A    between atoms: _88  and  _89
REMARK   39  A    between atoms: _92  and  _94
REMARK   40  A    between atoms: _94  and  _95
REMARK   41  A    between atoms: _94  and  _97
REMARK   42  A    between atoms: _97  and  _98
REMARK   43  A    between atoms: _101  and  _103
REMARK   44  A    between atoms: _103  and  _104
REMARK   45  A    between atoms: _103  and  _106
REMARK   46  A    between atoms: _109  and  _111
REMARK   47  A    between atoms: _111  and  _112
REMARK   48  A    between atoms: _115  and  _117
REMARK   49  A    between atoms: _117  and  _118
REMARK   50  A    between atoms: _121  and  _123
REMARK   51  A    between atoms: _123  and  _124
REMARK   52  A    between atoms: _123  and  _126
REMARK   53  A    between atoms: _126  and  _127
REMARK   54  A    between atoms: _133  and  _134
REMARK   55  A    between atoms: _139  and  _141
REMARK   56  A    between atoms: _141  and  _142
REMARK   57  A    between atoms: _141  and  _144
REMARK   58  A    between atoms: _144  and  _145
REMARK   59  A    between atoms: _145  and  _146
REMARK   60  A    between atoms: _151  and  _153
REMARK   61  A    between atoms: _153  and  _154
REMARK   62  A    between atoms: _153  and  _156
REMARK   63  A    between atoms: _156  and  _157
REMARK   64  A    between atoms: _160  and  _162
REMARK   65  A    between atoms: _162  and  _163
REMARK   66  A    between atoms: _162  and  _165
REMARK   67  A    between atoms: _165  and  _166
REMARK   68  A    between atoms: _171  and  _173
REMARK   69  A    between atoms: _173  and  _174
REMARK   70  A    between atoms: _176  and  _178
REMARK   71  A    between atoms: _178  and  _179
REMARK   72  A    between atoms: _178  and  _181
REMARK   73  A    between atoms: _181  and  _182
REMARK   74  A    between atoms: _185  and  _187
REMARK   75  A    between atoms: _187  and  _188
REMARK   76  A    between atoms: _190  and  _192
REMARK   77  A    between atoms: _192  and  _193
REMARK   78  A    between atoms: _195  and  _197
REMARK   79  A    between atoms: _197  and  _198
REMARK   80  A    between atoms: _200  and  _202
REMARK   81  A    between atoms: _202  and  _203
REMARK   82  A    between atoms: _202  and  _205
REMARK   83  A    between atoms: _205  and  _206
REMARK   84  A    between atoms: _209  and  _211
REMARK   85  A    between atoms: _211  and  _212
REMARK   86  A    between atoms: _211  and  _214
REMARK   87  A    between atoms: _217  and  _219
REMARK   88  A    between atoms: _219  and  _220
REMARK   89  A    between atoms: _219  and  _222
REMARK   90  A    between atoms: _222  and  _223
REMARK   91  A    between atoms: _226  and  _228
REMARK   92  A    between atoms: _228  and  _229
REMARK   93  A    between atoms: _232  and  _234
REMARK   94  A    between atoms: _234  and  _235
REMARK   95  A    between atoms: _234  and  _237
REMARK   96  A    between atoms: _237  and  _238
REMARK   97  A    between atoms: _242  and  _243
REMARK   98  A    between atoms: _248  and  _250
REMARK   99  A    between atoms: _250  and  _251
REMARK  100  A    between atoms: _250  and  _253
REMARK  101  A    between atoms: _256  and  _258
REMARK  102  A    between atoms: _258  and  _259
REMARK  103  A    between atoms: _258  and  _261
REMARK  104  A    between atoms: _261  and  _262
REMARK  105  A    between atoms: _267  and  _269
REMARK  106  A    between atoms: _269  and  _270
REMARK  107  A    between atoms: _269  and  _272
REMARK  108  A    between atoms: _272  and  _273
REMARK  109  A    between atoms: _276  and  _278
REMARK  110  A    between atoms: _278  and  _279
REMARK  111  A    between atoms: _278  and  _281
REMARK  112  A    between atoms: _281  and  _282
REMARK  113  A    between atoms: _285  and  _287
REMARK  114  A    between atoms: _287  and  _288
REMARK  115  A    between atoms: _290  and  _292
REMARK  116  A    between atoms: _292  and  _293
REMARK  117  A    between atoms: _292  and  _295
REMARK  118  A    between atoms: _295  and  _296
REMARK  119  A    between atoms: _296  and  _297
REMARK  120  A    between atoms: _297  and  _298
REMARK  121  A    between atoms: _307  and  _309
REMARK  122  A    between atoms: _309  and  _310
REMARK  123  A    between atoms: _309  and  _312
REMARK  124  A    between atoms: _312  and  _313
REMARK  125  A    between atoms: _316  and  _318
REMARK  126  A    between atoms: _318  and  _319
REMARK  127  A    between atoms: _318  and  _321
REMARK  128  A    between atoms: _321  and  _322
REMARK  129  A    between atoms: _327  and  _329
REMARK  130  A    between atoms: _329  and  _330
REMARK  131  A    between atoms: _329  and  _332
REMARK  132  A    between atoms: _332  and  _333
REMARK  133  A    between atoms: _333  and  _334
REMARK  134  A    between atoms: _334  and  _335
REMARK  135  A    between atoms: _344  and  _346
REMARK  136  A    between atoms: _346  and  _347
REMARK  137  A    between atoms: _346  and  _349
REMARK  138  A    between atoms: _349  and  _350
REMARK  139  A    between atoms: _353  and  _355
REMARK  140  A    between atoms: _355  and  _356
REMARK  141  A    between atoms: _355  and  _358
REMARK  142  A    between atoms: _358  and  _359
REMARK  143  A    between atoms: _362  and  _364
REMARK  144  A    between atoms: _364  and  _365
REMARK  145  A    between atoms: _364  and  _367
REMARK  146  A    between atoms: _367  and  _368
REMARK  147  A    between atoms: _371  and  _373
REMARK  148  A    between atoms: _373  and  _374
REMARK  149  A    between atoms: _373  and  _376
REMARK  150  A    between atoms: _376  and  _377
REMARK  151  A    between atoms: _380  and  _382
REMARK  152  A    between atoms: _382  and  _383
REMARK  153  A    between atoms: _382  and  _385
REMARK  154  A    between atoms: _385  and  _386
REMARK  155  A    between atoms: _389  and  _391
REMARK  156  A    between atoms: _391  and  _392
REMARK  157  A    between atoms: _394  and  _396
REMARK  158  A    between atoms: _396  and  _397
REMARK  159  A    between atoms: _400  and  _402
REMARK  160  A    between atoms: _402  and  _403
REMARK  161  A    between atoms: _402  and  _405
REMARK  162  A    between atoms: _405  and  _406
REMARK  163  A    between atoms: _409  and  _411
REMARK  164  A    between atoms: _411  and  _412
REMARK  165  A    between atoms: _411  and  _414
REMARK  166  A    between atoms: _414  and  _415
REMARK  167  A    between atoms: _418  and  _420
REMARK  168  A    between atoms: _420  and  _421
REMARK  169  A    between atoms: _420  and  _423
REMARK  170  A    between atoms: _423  and  _424
REMARK  171  A    between atoms: _427  and  _429
REMARK  172  A    between atoms: _429  and  _430
REMARK  173  A    between atoms: _429  and  _432
REMARK  174  A    between atoms: _435  and  _437
REMARK  175  A    between atoms: _437  and  _438
REMARK  176  A    between atoms: _437  and  _440
REMARK  177  A    between atoms: _440  and  _441
REMARK  178  A    between atoms: _441  and  _442
REMARK  179  A    between atoms: _447  and  _449
REMARK  180  A    between atoms: _449  and  _450
REMARK  181  A    between atoms: _449  and  _452
REMARK  182  A    between atoms: _452  and  _453
REMARK  183  A    between atoms: _456  and  _458
REMARK  184  A    between atoms: _458  and  _459
REMARK  185  A    between atoms: _458  and  _461
REMARK  186  A    between atoms: _461  and  _462
REMARK  187  A    between atoms: _467  and  _469
REMARK  188  A    between atoms: _469  and  _470
REMARK  189  A    between atoms: _472  and  _474
REMARK  190  A    between atoms: _474  and  _475
REMARK  191  A    between atoms: _474  and  _477
REMARK  192  A    between atoms: _477  and  _478
REMARK  193  A    between atoms: _481  and  _483
REMARK  194  A    between atoms: _483  and  _484
REMARK  195  A    between atoms: _486  and  _488
REMARK  196  A    between atoms: _488  and  _489
REMARK  197  A    between atoms: _491  and  _493
REMARK  198  A    between atoms: _493  and  _494
REMARK  199  A    between atoms: _493  and  _496
REMARK  200  A    between atoms: _496  and  _497
REMARK  201  A    between atoms: _500  and  _502
REMARK  202  A    between atoms: _502  and  _503
REMARK  203  A    between atoms: _502  and  _505
REMARK  204  A    between atoms: _505  and  _506
REMARK  205  A    between atoms: _510  and  _511
REMARK  206  A    between atoms: _516  and  _518
REMARK  207  A    between atoms: _518  and  _519
REMARK  208  A    between atoms: _518  and  _521
REMARK  209  A    between atoms: _524  and  _526
REMARK  210  A    between atoms: _526  and  _527
REMARK  211  A    between atoms: _526  and  _529
REMARK  212  A    between atoms: _529  and  _530
REMARK  213  A    between atoms: _535  and  _537
REMARK  214  A    between atoms: _537  and  _538
REMARK  215  A    between atoms: _537  and  _540
REMARK  216  A    between atoms: _540  and  _541
REMARK  217  A    between atoms: _544  and  _546
REMARK  218  A    between atoms: _546  and  _547
REMARK  219  A    between atoms: _546  and  _549
REMARK  220  A    between atoms: _549  and  _550
REMARK  221  A    between atoms: _553  and  _555
REMARK  222  A    between atoms: _555  and  _556
REMARK  223  A    between atoms: _558  and  _560
REMARK  224  A    between atoms: _560  and  _561
REMARK  225  A    between atoms: _560  and  _563
REMARK  226  A    between atoms: _563  and  _564
REMARK  227  A    between atoms: _564  and  _565
REMARK  228  A    between atoms: _565  and  _566
REMARK                            x       y       z     vdW  Elec       q    Type
REMARK                         _______ _______ _______ _____ _____    ______ ____
ROOT
ATOM      1  CA  LEU A   1      -4.601  26.236  23.103  0.00  0.00    +0.133 C 
ENDROOT
BRANCH   1   2
ATOM      2  N   LEU A   1      -5.089  26.820  24.336  0.00  0.00    -0.239 NA
ATOM      3  H   LEU A   1      -6.012  27.299  24.325  0.00  0.00    +0.142 HD
ENDBRANCH   1   2
BRANCH   1   4
ATOM      4  C   LEU A   1      -4.114  27.279  22.066  0.00  0.00    +0.224 C 
ATOM      5  O   LEU A   1      -4.775  28.287  21.802  0.00  0.00    -0.287 OA
ENDBRANCH   1   4
BRANCH   1   6
ATOM      6  CB  LEU A   1      -5.694  25.406  22.469  0.00  0.00    +0.025 C 
BRANCH   6   7
ATOM      7  CG  LEU A   1      -6.125  24.072  23.037  0.00  0.00    +0.002 C 
ATOM      8  CD2 LEU A   1      -4.982  23.093  23.088  0.00  0.00    +0.000 C 
ATOM      9  CD1 LEU A   1      -7.254  23.550  22.154  0.00  0.00    +0.000 C 
ENDBRANCH   6   7
ENDBRANCH   1   6
TORSDOF 4
REMARK  Name = ../refined-set-2016/1bai/1bai_pocket.pdb
REMARK  228 active torsions:
REMARK  status: ('A' for Active; 'I' for Inactive)
REMARK    1  A    between atoms: _1  and  _3
REMARK    2  A    between atoms: _3  and  _4
REMARK    3  A    between atoms: _3  and  _6
REMARK    4  A    between atoms: _6  and  _7
REMARK    5  A    between atoms: _7  and  _8
REMARK    6  A    between atoms: _8  and  _9
REMARK    7  A    between atoms: _18  and  _20
REMARK    8  A    between atoms: _20  and  _21
REMARK    9  A    between atoms: _20  and  _23
REMARK   10  A    between atoms: _23  and  _24
REMARK   11  A    between atoms: _27  and  _29
REMARK   12  A    between atoms: _29  and  _30
REMARK   13  A    between atoms: _29  and  _32
REMARK   14  A    between atoms: _32  and  _33
REMARK   15  A    between atoms: _36  and  _38
REMARK   16  A    between atoms: _38  and  _39
REMARK   17  A    between atoms: _38  and  _41
REMARK   18  A    between atoms: _41  and  _42
REMARK   19  A    between atoms: _45  and  _47
REMARK   20  A    between atoms: _47  and  _48
REMARK   21  A    between atoms: _47  and  _50
REMARK   22  A    between atoms: _50  and  _51
REMARK   23  A    between atoms: _54  and  _56
REMARK   24  A    between atoms: _56  and  _57
REMARK   25  A    between atoms: _56  and  _59
REMARK   26  A    between atoms: _59  and  _60
REMARK   27  A    between atoms: _63  and  _65
REMARK   28  A    between atoms: _65  and  _66
REMARK   29  A    between atoms: _68  and  _70
REMARK   30  A    between atoms: _70  and  _71
REMARK   31  A    between atoms: _74  and  _76
REMARK   32  A    between atoms: _76  and  _77
REMARK   33  A    between atoms: _76  and  _79
REMARK   34  A    between atoms: _79  and  _80
REMARK   35  A    between atoms: _83  and  _85
REMARK   36  A    between atoms: _85  and  _86
REMARK   37  A    between atoms: _85  and  _88
REMARK   38  A    between atoms: _88  and  _89
REMARK   39  A    between atoms: _92  and  _94
REMARK   40  A    between atoms: _94  and  _95
REMARK   41  A    between atoms: _94  and  _97
REMARK   42  A    between atoms: _97  and  _98
REMARK   43  A    between atoms: _101  and  _103
REMARK   44  A    between atoms: _103  and  _104
REMARK   45  A    between atoms: _103  and  _106
REMARK   46  A    between atoms: _109  and  _111
REMARK   47  A    between atoms: _111  and  _112
REMARK   48  A    between atoms: _115  and  _117
REMARK   49  A    between atoms: _117  and  _118
REMARK   50  A    between atoms: _121  and  _123
REMARK   51  A    between atoms: _123  and  _124
REMARK   52  A    between atoms: _123  and  _126
REMARK   53  A    between atoms: _126  and  _127
REMARK   54  A    between atoms: _133  and  _134
REMARK   55  A    between atoms: _139  and  _141
REMARK   56  A    between atoms: _141  and  _142
REMARK   57  A    between atoms: _141  and  _144
REMARK   58  A    between atoms: _144  and  _145
REMARK   59  A    between atoms: _145  and  _146
REMARK   60  A    between atoms: _151  and  _153
REMARK   61  A    between atoms: _153  and  _154
REMARK   62  A    between atoms: _153  and  _156
REMARK   63  A    between atoms: _156  and  _157
REMARK   64  A    between atoms: _160  and  _162
REMARK   65  A    between atoms: _162  and  _163
REMARK   66  A    between atoms: _162  and  _165
REMARK   67  A    between atoms: _165  and  _166
REMARK   68  A    between atoms: _171  and  _173
REMARK   69  A    between atoms: _173  and  _174
REMARK   70  A    between atoms: _176  and  _178
REMARK   71  A    between atoms: _178  and  _179
REMARK   72  A    between atoms: _178  and  _181
REMARK   73  A    between atoms: _181  and  _182
REMARK   74  A    between atoms: _185  and  _187
REMARK   75  A    between atoms: _187  and  _188
REMARK   76  A    between atoms: _190  and  _192
REMARK   77  A    between atoms: _192  and  _193
REMARK   78  A    between atoms: _195  and  _197
REMARK   79  A    between atoms: _197  and  _198
REMARK   80  A    between atoms: _200  and  _202
REMARK   81  A    between atoms: _202  and  _203
REMARK   82  A    between atoms: _202  and  _205
REMARK   83  A    between atoms: _205  and  _206
REMARK   84  A    between atoms: _209  and  _211
REMARK   85  A    between atoms: _211  and  _212
REMARK   86  A    between atoms: _211  and  _214
REMARK   87  A    between atoms: _217  and  _219
REMARK   88  A    between atoms: _219  and  _220
REMARK   89  A    between atoms: _219  and  _222
REMARK   90  A    between atoms: _222  and  _223
REMARK   91  A    between atoms: _226  and  _228
REMARK   92  A    between atoms: _228  and  _229
REMARK   93  A    between atoms: _232  and  _234
REMARK   94  A    between atoms: _234  and  _235
REMARK   95  A    between atoms: _234  and  _237
REMARK   96  A    between atoms: _237  and  _238
REMARK   97  A    between atoms: _242  and  _243
REMARK   98  A    between atoms: _248  and  _250
REMARK   99  A    between atoms: _250  and  _251
REMARK  100  A    between atoms: _250  and  _253
REMARK  101  A    between atoms: _256  and  _258
REMARK  102  A    between atoms: _258  and  _259
REMARK  103  A    between atoms: _258  and  _261
REMARK  104  A    between atoms: _261  and  _262
REMARK  105  A    between atoms: _267  and  _269
REMARK  106  A    between atoms: _269  and  _270
REMARK  107  A    between atoms: _269  and  _272
REMARK  108  A    between atoms: _272  and  _273
REMARK  109  A    between atoms: _276  and  _278
REMARK  110  A    between atoms: _278  and  _279
REMARK  111  A    between atoms: _278  and  _281
REMARK  112  A    between atoms: _281  and  _282
REMARK  113  A    between atoms: _285  and  _287
REMARK  114  A    between atoms: _287  and  _288
REMARK  115  A    between atoms: _290  and  _292
REMARK  116  A    between atoms: _292  and  _293
REMARK  117  A    between atoms: _292  and  _295
REMARK  118  A    between atoms: _295  and  _296
REMARK  119  A    between atoms: _296  and  _297
REMARK  120  A    between atoms: _297  and  _298
REMARK  121  A    between atoms: _307  and  _309
REMARK  122  A    between atoms: _309  and  _310
REMARK  123  A    between atoms: _309  and  _312
REMARK  124  A    between atoms: _312  and  _313
REMARK  125  A    between atoms: _316  and  _318
REMARK  126  A    between atoms: _318  and  _319
REMARK  127  A    between atoms: _318  and  _321
REMARK  128  A    between atoms: _321  and  _322
REMARK  129  A    between atoms: _327  and  _329
REMARK  130  A    between atoms: _329  and  _330
REMARK  131  A    between atoms: _329  and  _332
REMARK  132  A    between atoms: _332  and  _333
REMARK  133  A    between atoms: _333  and  _334
REMARK  134  A    between atoms: _334  and  _335
REMARK  135  A    between atoms: _344  and  _346
REMARK  136  A    between atoms: _346  and  _347
REMARK  137  A    between atoms: _346  and  _349
REMARK  138  A    between atoms: _349  and  _350
REMARK  139  A    between atoms: _353  and  _355
REMARK  140  A    between atoms: _355  and  _356
REMARK  141  A    between atoms: _355  and  _358
REMARK  142  A    between atoms: _358  and  _359
REMARK  143  A    between atoms: _362  and  _364
REMARK  144  A    between atoms: _364  and  _365
REMARK  145  A    between atoms: _364  and  _367
REMARK  146  A    between atoms: _367  and  _368
REMARK  147  A    between atoms: _371  and  _373
REMARK  148  A    between atoms: _373  and  _374
REMARK  149  A    between atoms: _373  and  _376
REMARK  150  A    between atoms: _376  and  _377
REMARK  151  A    between atoms: _380  and  _382
REMARK  152  A    between atoms: _382  and  _383
REMARK  153  A    between atoms: _382  and  _385
REMARK  154  A    between atoms: _385  and  _386
REMARK  155  A    between atoms: _389  and  _391
REMARK  156  A    between atoms: _391  and  _392
REMARK  157  A    between atoms: _394  and  _396
REMARK  158  A    between atoms: _396  and  _397
REMARK  159  A    between atoms: _400  and  _402
REMARK  160  A    between atoms: _402  and  _403
REMARK  161  A    between atoms: _402  and  _405
REMARK  162  A    between atoms: _405  and  _406
REMARK  163  A    between atoms: _409  and  _411
REMARK  164  A    between atoms: _411  and  _412
REMARK  165  A    between atoms: _411  and  _414
REMARK  166  A    between atoms: _414  and  _415
REMARK  167  A    between atoms: _418  and  _420
REMARK  168  A    between atoms: _420  and  _421
REMARK  169  A    between atoms: _420  and  _423
REMARK  170  A    between atoms: _423  and  _424
REMARK  171  A    between atoms: _427  and  _429
REMARK  172  A    between atoms: _429  and  _430
REMARK  173  A    between atoms: _429  and  _432
REMARK  174  A    between atoms: _435  and  _437
REMARK  175  A    between atoms: _437  and  _438
REMARK  176  A    between atoms: _437  and  _440
REMARK  177  A    between atoms: _440  and  _441
REMARK  178  A    between atoms: _441  and  _442
REMARK  179  A    between atoms: _447  and  _449
REMARK  180  A    between atoms: _449  and  _450
REMARK  181  A    between atoms: _449  and  _452
REMARK  182  A    between atoms: _452  and  _453
REMARK  183  A    between atoms: _456  and  _458
REMARK  184  A    between atoms: _458  and  _459
REMARK  185  A    between atoms: _458  and  _461
REMARK  186  A    between atoms: _461  and  _462
REMARK  187  A    between atoms: _467  and  _469
REMARK  188  A    between atoms: _469  and  _470
REMARK  189  A    between atoms: _472  and  _474
REMARK  190  A    between atoms: _474  and  _475
REMARK  191  A    between atoms: _474  and  _477
REMARK  192  A    between atoms: _477  and  _478
REMARK  193  A    between atoms: _481  and  _483
REMARK  194  A    between atoms: _483  and  _484
REMARK  195  A    between atoms: _486  and  _488
REMARK  196  A    between atoms: _488  and  _489
REMARK  197  A    between atoms: _491  and  _493
REMARK  198  A    between atoms: _493  and  _494
REMARK  199  A    between atoms: _493  and  _496
REMARK  200  A    between atoms: _496  and  _497
REMARK  201  A    between atoms: _500  and  _502
REMARK  202  A    between atoms: _502  and  _503
REMARK  203  A    between atoms: _502  and  _505
REMARK  204  A    between atoms: _505  and  _506
REMARK  205  A    between atoms: _510  and  _511
REMARK  206  A    between atoms: _516  and  _518
REMARK  207  A    between atoms: _518  and  _519
REMARK  208  A    between atoms: _518  and  _521
REMARK  209  A    between atoms: _524  and  _526
REMARK  210  A    between atoms: _526  and  _527
REMARK  211  A    between atoms: _526  and  _529
REMARK  212  A    between atoms: _529  and  _530
REMARK  213  A    between atoms: _535  and  _537
REMARK  214  A    between atoms: _537  and  _538
REMARK  215  A    between atoms: _537  and  _540
REMARK  216  A    between atoms: _540  and  _541
REMARK  217  A    between atoms: _544  and  _546
REMARK  218  A    between atoms: _546  and  _547
REMARK  219  A    between atoms: _546  and  _549
REMARK  220  A    between atoms: _549  and  _550
REMARK  221  A    between atoms: _553  and  _555
REMARK  222  A    between atoms: _555  and  _556
REMARK  223  A    between atoms: _558  and  _560
REMARK  224  A    between atoms: _560  and  _561
REMARK  225  A    between atoms: _560  and  _563
REMARK  226  A    between atoms: _563  and  _564
REMARK  227  A    between atoms: _564  and  _565
REMARK  228  A    between atoms: _565  and  _566
REMARK                            x       y       z     vdW  Elec       q    Type
REMARK                         _______ _______ _______ _____ _____    ______ ____
ROOT
ATOM      1  C   GLY A   5       3.663  21.081  34.210  0.00  0.00    +0.243 C 
ATOM      2  O   GLY A   5       4.099  20.075  34.799  0.00  0.00    -0.273 OA
ATOM      3  N   ALA A   6       3.957  21.394  32.952  0.00  0.00    -0.297 N 
ATOM      4  H   ALA A   6       3.525  22.243  32.536  0.00  0.00    +0.150 HD
ENDROOT
BRANCH   3   5
ATOM      5  CA  ALA A   6       4.851  20.604  32.140  0.00  0.00    +0.149 C 
ATOM      6  CB  ALA A   6       4.174  20.249  30.810  0.00  0.00    +0.031 C 
BRANCH   5   7
ATOM      7  C   ALA A   6       6.190  21.372  31.945  0.00  0.00    +0.241 C 
ATOM      8  N   ASP A   7       7.258  20.616  32.162  0.00  0.00    -0.297 N 
ATOM      9  H   ASP A   7       7.122  19.611  32.391  0.00  0.00    +0.150 HD
ATOM     10  O   ALA A   6       6.258  22.606  31.657  0.00  0.00    -0.273 OA
BRANCH   8  11
ATOM     11  CA  ASP A   7       8.604  21.139  32.092  0.00  0.00    +0.160 C 
BRANCH  11  12
ATOM     12  C   ASP A   7       9.254  21.080  30.732  0.00  0.00    +0.241 C 
ATOM     13  O   ASP A   7      10.208  21.783  30.481  0.00  0.00    -0.273 OA
ATOM     14  N   ASP A   8       8.723  20.278  29.830  0.00  0.00    -0.297 N 
ATOM     15  H   ASP A   8       7.864  19.736  30.052  0.00  0.00    +0.150 HD
BRANCH  14  16
ATOM     16  CA  ASP A   8       9.337  20.159  28.543  0.00  0.00    +0.160 C 
BRANCH  16  17
ATOM     17  C   ASP A   8       8.271  20.298  27.484  0.00  0.00    +0.241 C 
ATOM     18  O   ASP A   8       7.101  20.210  27.811  0.00  0.00    -0.273 OA
ATOM     19  N   THR A   9       8.641  20.572  26.236  0.00  0.00    -0.295 N 
ATOM     20  H   THR A   9       9.640  20.733  25.996  0.00  0.00    +0.150 HD
BRANCH  19  21
ATOM     21  CA  THR A   9       7.613  20.639  25.224  0.00  0.00    +0.176 C 
BRANCH  21  22
ATOM     22  C   THR A   9       7.616  19.273  24.694  0.00  0.00    +0.243 C 
ATOM     23  O   THR A   9       8.662  18.653  24.660  0.00  0.00    -0.273 OA
ATOM     24  N   VAL A  10       6.444  18.735  24.423  0.00  0.00    -0.298 N 
ATOM     25  H   VAL A  10       5.569  19.265  24.613  0.00  0.00    +0.150 HD
BRANCH  24  26
ATOM     26  CA  VAL A  10       6.380  17.416  23.865  0.00  0.00    +0.137 C 
BRANCH  26  27
ATOM     27  CB  VAL A  10       6.084  16.326  24.923  0.00  0.00    +0.026 C 
ATOM     28  CG2 VAL A  10       6.990  16.484  26.091  0.00  0.00    +0.002 C 
ATOM     29  CG1 VAL A  10       6.291  14.922  24.333  0.00  0.00    +0.002 C 
ENDBRANCH  26  27
BRANCH  26  30
ATOM     30  C   VAL A  10       5.333  17.396  22.756  0.00  0.00    +0.227 C 
ATOM     31  O   VAL A  10       4.167  17.777  22.968  0.00  0.00    -0.286 OA
ENDBRANCH  26  30
ENDBRANCH  24  26
ENDBRANCH  21  22
BRANCH  21  32
ATOM     32  CB  THR A   9       7.915  21.586  24.050  0.00  0.00    +0.137 C 
ATOM     33  CG2 THR A   9       8.004  23.001  24.517  0.00  0.00    +0.034 C 
BRANCH  32  34
ATOM     34  OG1 THR A   9       9.127  21.196  23.407  0.00  0.00    -0.382 OA
ATOM     35  HG1 THR A   9       9.035  20.272  23.065  0.00  0.00    +0.210 HD
ENDBRANCH  32  34
ENDBRANCH  21  32
ENDBRANCH  19  21
ENDBRANCH  16  17
BRANCH  16  36
ATOM     36  CB  ASP A   8       9.964  18.783  28.438  0.00  0.00    +0.143 C 
BRANCH  36  37
ATOM     37  CG  ASP A   8      10.951  18.507  29.533  0.00  0.00    +0.367 C 
ATOM     38  OD2 ASP A   8      10.710  17.506  30.244  0.00  0.00    -0.246 OA
ATOM     39  OD1 ASP A   8      11.955  19.255  29.677  0.00  0.00    -0.246 OA
ENDBRANCH  36  37
ENDBRANCH  16  36
ENDBRANCH  14  16
ENDBRANCH  11  12
BRANCH  11  40
ATOM     40  CB  ASP A   7       9.472  20.415  33.101  0.00  0.00    +0.143 C 
BRANCH  40  41
ATOM     41  CG  ASP A   7      10.641  21.250  33.524  0.00  0.00    +0.367 C 
ATOM     42  OD2 ASP A   7      10.431  22.142  34.400  0.00  0.00    -0.246 OA
ATOM     43  OD1 ASP A   7      11.754  21.063  32.950  0.00  0.00    -0.246 OA
ENDBRANCH  40  41
ENDBRANCH  11  40
ENDBRANCH   8  11
ENDBRANCH   5   7
ENDBRANCH   3   5
BRANCH   1  44
ATOM     44  CA  GLY A   5       2.702  22.039  34.855  0.00  0.00    +0.176 C 
BRANCH  44  47
ATOM     45  C   THR A   4       3.152  24.237  34.017  0.00  0.00    +0.243 C 
ATOM     46  O   THR A   4       4.104  24.335  34.787  0.00  0.00    -0.273 OA
ATOM     47  N   GLY A   5       2.384  23.164  33.977  0.00  0.00    -0.295 N 
ATOM     48  H   GLY A   5       1.568  23.120  33.333  0.00  0.00    +0.150 HD
BRANCH  45  49
ATOM     49  CA  THR A   4       2.770  25.393  33.160  0.00  0.00    +0.176 C 
BRANCH  49  51
ATOM     50  C   ASP A   3       2.223  24.329  31.050  0.00  0.00    +0.241 C 
ATOM     51  N   THR A   4       1.830  25.012  32.111  0.00  0.00    -0.295 N 
ATOM     52  H   THR A   4       0.830  25.284  32.200  0.00  0.00    +0.150 HD
ATOM     53  O   ASP A   3       3.364  23.920  30.929  0.00  0.00    -0.273 OA
BRANCH  50  54
ATOM     54  CA  ASP A   3       1.171  23.989  30.018  0.00  0.00    +0.160 C 
BRANCH  54  57
ATOM     55  C   LEU A   2       0.056  25.283  28.345  0.00  0.00    +0.241 C 
ATOM     56  O   LEU A   2      -0.984  25.229  29.007  0.00  0.00    -0.273 OA
ATOM     57  N   ASP A   3       1.199  24.819  28.832  0.00  0.00    -0.297 N 
ATOM     58  H   ASP A   3       2.102  25.048  28.369  0.00  0.00    +0.150 HD
BRANCH  55  59
ATOM     59  CA  LEU A   2       0.065  26.045  27.014  0.00  0.00    +0.149 C 
BRANCH  59  61
ATOM     60  C   LEU A   1      -0.629  24.167  25.617  0.00  0.00    +0.238 C 
ATOM     61  N   LEU A   2      -0.904  25.337  26.186  0.00  0.00    -0.297 N 
ATOM     62  H   LEU A   2      -1.842  25.761  26.035  0.00  0.00    +0.150 HD
ATOM     63  O   LEU A   1       0.518  23.683  25.643  0.00  0.00    -0.274 OA
BRANCH  60  64
ATOM     64  CA  LEU A   1      -1.775  23.482  24.815  0.00  0.00    +0.145 C 
BRANCH  64  65
ATOM     65  N   LEU A   1      -1.271  22.907  23.587  0.00  0.00    -0.238 NA
ATOM     66  H   LEU A   1      -0.696  22.042  23.628  0.00  0.00    +0.142 HD
ENDBRANCH  64  65
BRANCH  64  67
ATOM     67  CB  LEU A   1      -2.428  22.355  25.603  0.00  0.00    +0.026 C 
BRANCH  67  68
ATOM     68  CG  LEU A   1      -2.781  22.549  27.063  0.00  0.00    +0.002 C 
ATOM     69  CD2 LEU A   1      -2.862  21.209  27.694  0.00  0.00    +0.000 C 
ATOM     70  CD1 LEU A   1      -4.061  23.223  27.224  0.00  0.00    +0.000 C 
ENDBRANCH  67  68
ENDBRANCH  64  67
ENDBRANCH  60  64
ENDBRANCH  59  61
BRANCH  59  71
ATOM     71  CB  LEU A   2      -0.432  27.468  27.230  0.00  0.00    +0.029 C 
BRANCH  71  72
ATOM     72  CG  LEU A   2      -0.315  28.342  25.973  0.00  0.00    +0.002 C 
ATOM     73  CD2 LEU A   2      -0.175  29.771  26.498  0.00  0.00    +0.000 C 
ATOM     74  CD1 LEU A   2       0.921  27.952  25.034  0.00  0.00    +0.000 C 
ENDBRANCH  71  72
ENDBRANCH  59  71
ENDBRANCH  55  59
ENDBRANCH  54  57
BRANCH  54  75
ATOM     75  CB  ASP A   3       1.336  22.545  29.524  0.00  0.00    +0.143 C 
BRANCH  75  76
ATOM     76  CG  ASP A   3       0.832  21.499  30.499  0.00  0.00    +0.367 C 
ATOM     77  OD2 ASP A   3      -0.110  21.718  31.284  0.00  0.00    -0.246 OA
ATOM     78  OD1 ASP A   3       1.359  20.396  30.450  0.00  0.00    -0.246 OA
ENDBRANCH  75  76
ENDBRANCH  54  75
ENDBRANCH  50  54
ENDBRANCH  49  51
BRANCH  49  79
ATOM     79  CB  THR A   4       2.174  26.455  34.155  0.00  0.00    +0.137 C 
ATOM     80  CG2 THR A   4       2.440  27.845  33.696  0.00  0.00    +0.034 C 
BRANCH  79  81
ATOM     81  OG1 THR A   4       0.751  26.286  34.253  0.00  0.00    -0.382 OA
ATOM     82  HG1 THR A   4       0.343  26.409  33.359  0.00  0.00    +0.210 HD
ENDBRANCH  79  81
ENDBRANCH  49  79
ENDBRANCH  45  49
ENDBRANCH  44  47
ENDBRANCH   1  44
TORSDOF 35
REMARK  Name = ../refined-set-2016/1bai/1bai_pocket.pdb
REMARK  228 active torsions:
REMARK  status: ('A' for Active; 'I' for Inactive)
REMARK    1  A    between atoms: _1  and  _3
REMARK    2  A    between atoms: _3  and  _4
REMARK    3  A    between atoms: _3  and  _6
REMARK    4  A    between atoms: _6  and  _7
REMARK    5  A    between atoms: _7  and  _8
REMARK    6  A    between atoms: _8  and  _9
REMARK    7  A    between atoms: _18  and  _20
REMARK    8  A    between atoms: _20  and  _21
REMARK    9  A    between atoms: _20  and  _23
REMARK   10  A    between atoms: _23  and  _24
REMARK   11  A    between atoms: _27  and  _29
REMARK   12  A    between atoms: _29  and  _30
REMARK   13  A    between atoms: _29  and  _32
REMARK   14  A    between atoms: _32  and  _33
REMARK   15  A    between atoms: _36  and  _38
REMARK   16  A    between atoms: _38  and  _39
REMARK   17  A    between atoms: _38  and  _41
REMARK   18  A    between atoms: _41  and  _42
REMARK   19  A    between atoms: _45  and  _47
REMARK   20  A    between atoms: _47  and  _48
REMARK   21  A    between atoms: _47  and  _50
REMARK   22  A    between atoms: _50  and  _51
REMARK   23  A    between atoms: _54  and  _56
REMARK   24  A    between atoms: _56  and  _57
REMARK   25  A    between atoms: _56  and  _59
REMARK   26  A    between atoms: _59  and  _60
REMARK   27  A    between atoms: _63  and  _65
REMARK   28  A    between atoms: _65  and  _66
REMARK   29  A    between atoms: _68  and  _70
REMARK   30  A    between atoms: _70  and  _71
REMARK   31  A    between atoms: _74  and  _76
REMARK   32  A    between atoms: _76  and  _77
REMARK   33  A    between atoms: _76  and  _79
REMARK   34  A    between atoms: _79  and  _80
REMARK   35  A    between atoms: _83  and  _85
REMARK   36  A    between atoms: _85  and  _86
REMARK   37  A    between atoms: _85  and  _88
REMARK   38  A    between atoms: _88  and  _89
REMARK   39  A    between atoms: _92  and  _94
REMARK   40  A    between atoms: _94  and  _95
REMARK   41  A    between atoms: _94  and  _97
REMARK   42  A    between atoms: _97  and  _98
REMARK   43  A    between atoms: _101  and  _103
REMARK   44  A    between atoms: _103  and  _104
REMARK   45  A    between atoms: _103  and  _106
REMARK   46  A    between atoms: _109  and  _111
REMARK   47  A    between atoms: _111  and  _112
REMARK   48  A    between atoms: _115  and  _117
REMARK   49  A    between atoms: _117  and  _118
REMARK   50  A    between atoms: _121  and  _123
REMARK   51  A    between atoms: _123  and  _124
REMARK   52  A    between atoms: _123  and  _126
REMARK   53  A    between atoms: _126  and  _127
REMARK   54  A    between atoms: _133  and  _134
REMARK   55  A    between atoms: _139  and  _141
REMARK   56  A    between atoms: _141  and  _142
REMARK   57  A    between atoms: _141  and  _144
REMARK   58  A    between atoms: _144  and  _145
REMARK   59  A    between atoms: _145  and  _146
REMARK   60  A    between atoms: _151  and  _153
REMARK   61  A    between atoms: _153  and  _154
REMARK   62  A    between atoms: _153  and  _156
REMARK   63  A    between atoms: _156  and  _157
REMARK   64  A    between atoms: _160  and  _162
REMARK   65  A    between atoms: _162  and  _163
REMARK   66  A    between atoms: _162  and  _165
REMARK   67  A    between atoms: _165  and  _166
REMARK   68  A    between atoms: _171  and  _173
REMARK   69  A    between atoms: _173  and  _174
REMARK   70  A    between atoms: _176  and  _178
REMARK   71  A    between atoms: _178  and  _179
REMARK   72  A    between atoms: _178  and  _181
REMARK   73  A    between atoms: _181  and  _182
REMARK   74  A    between atoms: _185  and  _187
REMARK   75  A    between atoms: _187  and  _188
REMARK   76  A    between atoms: _190  and  _192
REMARK   77  A    between atoms: _192  and  _193
REMARK   78  A    between atoms: _195  and  _197
REMARK   79  A    between atoms: _197  and  _198
REMARK   80  A    between atoms: _200  and  _202
REMARK   81  A    between atoms: _202  and  _203
REMARK   82  A    between atoms: _202  and  _205
REMARK   83  A    between atoms: _205  and  _206
REMARK   84  A    between atoms: _209  and  _211
REMARK   85  A    between atoms: _211  and  _212
REMARK   86  A    between atoms: _211  and  _214
REMARK   87  A    between atoms: _217  and  _219
REMARK   88  A    between atoms: _219  and  _220
REMARK   89  A    between atoms: _219  and  _222
REMARK   90  A    between atoms: _222  and  _223
REMARK   91  A    between atoms: _226  and  _228
REMARK   92  A    between atoms: _228  and  _229
REMARK   93  A    between atoms: _232  and  _234
REMARK   94  A    between atoms: _234  and  _235
REMARK   95  A    between atoms: _234  and  _237
REMARK   96  A    between atoms: _237  and  _238
REMARK   97  A    between atoms: _242  and  _243
REMARK   98  A    between atoms: _248  and  _250
REMARK   99  A    between atoms: _250  and  _251
REMARK  100  A    between atoms: _250  and  _253
REMARK  101  A    between atoms: _256  and  _258
REMARK  102  A    between atoms: _258  and  _259
REMARK  103  A    between atoms: _258  and  _261
REMARK  104  A    between atoms: _261  and  _262
REMARK  105  A    between atoms: _267  and  _269
REMARK  106  A    between atoms: _269  and  _270
REMARK  107  A    between atoms: _269  and  _272
REMARK  108  A    between atoms: _272  and  _273
REMARK  109  A    between atoms: _276  and  _278
REMARK  110  A    between atoms: _278  and  _279
REMARK  111  A    between atoms: _278  and  _281
REMARK  112  A    between atoms: _281  and  _282
REMARK  113  A    between atoms: _285  and  _287
REMARK  114  A    between atoms: _287  and  _288
REMARK  115  A    between atoms: _290  and  _292
REMARK  116  A    between atoms: _292  and  _293
REMARK  117  A    between atoms: _292  and  _295
REMARK  118  A    between atoms: _295  and  _296
REMARK  119  A    between atoms: _296  and  _297
REMARK  120  A    between atoms: _297  and  _298
REMARK  121  A    between atoms: _307  and  _309
REMARK  122  A    between atoms: _309  and  _310
REMARK  123  A    between atoms: _309  and  _312
REMARK  124  A    between atoms: _312  and  _313
REMARK  125  A    between atoms: _316  and  _318
REMARK  126  A    between atoms: _318  and  _319
REMARK  127  A    between atoms: _318  and  _321
REMARK  128  A    between atoms: _321  and  _322
REMARK  129  A    between atoms: _327  and  _329
REMARK  130  A    between atoms: _329  and  _330
REMARK  131  A    between atoms: _329  and  _332
REMARK  132  A    between atoms: _332  and  _333
REMARK  133  A    between atoms: _333  and  _334
REMARK  134  A    between atoms: _334  and  _335
REMARK  135  A    between atoms: _344  and  _346
REMARK  136  A    between atoms: _346  and  _347
REMARK  137  A    between atoms: _346  and  _349
REMARK  138  A    between atoms: _349  and  _350
REMARK  139  A    between atoms: _353  and  _355
REMARK  140  A    between atoms: _355  and  _356
REMARK  141  A    between atoms: _355  and  _358
REMARK  142  A    between atoms: _358  and  _359
REMARK  143  A    between atoms: _362  and  _364
REMARK  144  A    between atoms: _364  and  _365
REMARK  145  A    between atoms: _364  and  _367
REMARK  146  A    between atoms: _367  and  _368
REMARK  147  A    between atoms: _371  and  _373
REMARK  148  A    between atoms: _373  and  _374
REMARK  149  A    between atoms: _373  and  _376
REMARK  150  A    between atoms: _376  and  _377
REMARK  151  A    between atoms: _380  and  _382
REMARK  152  A    between atoms: _382  and  _383
REMARK  153  A    between atoms: _382  and  _385
REMARK  154  A    between atoms: _385  and  _386
REMARK  155  A    between atoms: _389  and  _391
REMARK  156  A    between atoms: _391  and  _392
REMARK  157  A    between atoms: _394  and  _396
REMARK  158  A    between atoms: _396  and  _397
REMARK  159  A    between atoms: _400  and  _402
REMARK  160  A    between atoms: _402  and  _403
REMARK  161  A    between atoms: _402  and  _405
REMARK  162  A    between atoms: _405  and  _406
REMARK  163  A    between atoms: _409  and  _411
REMARK  164  A    between atoms: _411  and  _412
REMARK  165  A    between atoms: _411  and  _414
REMARK  166  A    between atoms: _414  and  _415
REMARK  167  A    between atoms: _418  and  _420
REMARK  168  A    between atoms: _420  and  _421
REMARK  169  A    between atoms: _420  and  _423
REMARK  170  A    between atoms: _423  and  _424
REMARK  171  A    between atoms: _427  and  _429
REMARK  172  A    between atoms: _429  and  _430
REMARK  173  A    between atoms: _429  and  _432
REMARK  174  A    between atoms: _435  and  _437
REMARK  175  A    between atoms: _437  and  _438
REMARK  176  A    between atoms: _437  and  _440
REMARK  177  A    between atoms: _440  and  _441
REMARK  178  A    between atoms: _441  and  _442
REMARK  179  A    between atoms: _447  and  _449
REMARK  180  A    between atoms: _449  and  _450
REMARK  181  A    between atoms: _449  and  _452
REMARK  182  A    between atoms: _452  and  _453
REMARK  183  A    between atoms: _456  and  _458
REMARK  184  A    between atoms: _458  and  _459
REMARK  185  A    between atoms: _458  and  _461
REMARK  186  A    between atoms: _461  and  _462
REMARK  187  A    between atoms: _467  and  _469
REMARK  188  A    between atoms: _469  and  _470
REMARK  189  A    between atoms: _472  and  _474
REMARK  190  A    between atoms: _474  and  _475
REMARK  191  A    between atoms: _474  and  _477
REMARK  192  A    between atoms: _477  and  _478
REMARK  193  A    between atoms: _481  and  _483
REMARK  194  A    between atoms: _483  and  _484
REMARK  195  A    between atoms: _486  and  _488
REMARK  196  A    between atoms: _488  and  _489
REMARK  197  A    between atoms: _491  and  _493
REMARK  198  A    between atoms: _493  and  _494
REMARK  199  A    between atoms: _493  and  _496
REMARK  200  A    between atoms: _496  and  _497
REMARK  201  A    between atoms: _500  and  _502
REMARK  202  A    between atoms: _502  and  _503
REMARK  203  A    between atoms: _502  and  _505
REMARK  204  A    between atoms: _505  and  _506
REMARK  205  A    between atoms: _510  and  _511
REMARK  206  A    between atoms: _516  and  _518
REMARK  207  A    between atoms: _518  and  _519
REMARK  208  A    between atoms: _518  and  _521
REMARK  209  A    between atoms: _524  and  _526
REMARK  210  A    between atoms: _526  and  _527
REMARK  211  A    between atoms: _526  and  _529
REMARK  212  A    between atoms: _529  and  _530
REMARK  213  A    between atoms: _535  and  _537
REMARK  214  A    between atoms: _537  and  _538
REMARK  215  A    between atoms: _537  and  _540
REMARK  216  A    between atoms: _540  and  _541
REMARK  217  A    between atoms: _544  and  _546
REMARK  218  A    between atoms: _546  and  _547
REMARK  219  A    between atoms: _546  and  _549
REMARK  220  A    between atoms: _549  and  _550
REMARK  221  A    between atoms: _553  and  _555
REMARK  222  A    between atoms: _555  and  _556
REMARK  223  A    between atoms: _558  and  _560
REMARK  224  A    between atoms: _560  and  _561
REMARK  225  A    between atoms: _560  and  _563
REMARK  226  A    between atoms: _563  and  _564
REMARK  227  A    between atoms: _564  and  _565
REMARK  228  A    between atoms: _565  and  _566
REMARK                            x       y       z     vdW  Elec       q    Type
REMARK                         _______ _______ _______ _____ _____    ______ ____
ROOT
ATOM      1  CA  HIS A   3       5.940  10.631  33.789  0.00  0.00    +0.155 C 
ENDROOT
BRANCH   1   3
ATOM      2  C   ILE A   2       6.696  10.491  31.478  0.00  0.00    +0.241 C 
ATOM      3  N   HIS A   3       6.581  11.154  32.616  0.00  0.00    -0.297 N 
ATOM      4  H   HIS A   3       6.979  12.113  32.664  0.00  0.00    +0.150 HD
ATOM      5  O   ILE A   2       6.567   9.268  31.372  0.00  0.00    -0.273 OA
BRANCH   2   6
ATOM      6  CA  ILE A   2       7.325  11.349  30.397  0.00  0.00    +0.148 C 
BRANCH   6   8
ATOM      7  C   GLN A   1       9.510  10.363  30.616  0.00  0.00    +0.238 C 
ATOM      8  N   ILE A   2       8.739  11.437  30.627  0.00  0.00    -0.297 N 
ATOM      9  H   ILE A   2       9.167  12.368  30.807  0.00  0.00    +0.150 HD
ATOM     10  O   GLN A   1       9.068   9.218  30.485  0.00  0.00    -0.274 OA
BRANCH   7  11
ATOM     11  CA  GLN A   1      10.978  10.649  30.884  0.00  0.00    +0.145 C 
BRANCH  11  12
ATOM     12  N   GLN A   1      11.773   9.983  29.910  0.00  0.00    -0.238 NA
ATOM     13  H   GLN A   1      12.467  10.530  29.362  0.00  0.00    +0.142 HD
ENDBRANCH  11  12
BRANCH  11  14
ATOM     14  CB  GLN A   1      11.247  12.164  30.804  0.00  0.00    +0.036 C 
BRANCH  14  15
ATOM     15  CG  GLN A   1      12.001  12.794  31.981  0.00  0.00    +0.087 C 
BRANCH  15  16
ATOM     16  CD  GLN A   1      11.105  13.150  33.146  0.00  0.00    +0.219 C 
ATOM     17  NE2 GLN A   1      11.430  12.597  34.320  0.00  0.00    -0.329 N 
ATOM     18 HE21 GLN A   1      10.861  12.801  35.166  0.00  0.00    +0.145 HD
ATOM     19 HE22 GLN A   1      12.252  11.963  34.386  0.00  0.00    +0.145 HD
ATOM     20  OE1 GLN A   1      10.125  13.922  33.005  0.00  0.00    -0.275 OA
ENDBRANCH  15  16
ENDBRANCH  14  15
ENDBRANCH  11  14
ENDBRANCH   7  11
ENDBRANCH   6   8
BRANCH   6  21
ATOM     21  CB  ILE A   2       7.061  10.893  28.947  0.00  0.00    +0.027 C 
ATOM     22  CG2 ILE A   2       5.680  11.353  28.448  0.00  0.00    +0.002 C 
BRANCH  21  23
ATOM     23  CG1 ILE A   2       8.022  11.656  28.062  0.00  0.00    +0.002 C 
ATOM     24  CD1 ILE A   2       8.117  13.105  28.461  0.00  0.00    +0.000 C 
ENDBRANCH  21  23
ENDBRANCH   6  21
ENDBRANCH   2   6
ENDBRANCH   1   3
BRANCH   1  25
ATOM     25  C   HIS A   3       4.888  11.745  33.922  0.00  0.00    +0.241 C 
ATOM     26  N   GLY A   4       3.728  11.380  34.441  0.00  0.00    -0.295 N 
ATOM     27  H   GLY A   4       3.586  10.382  34.697  0.00  0.00    +0.150 HD
ATOM     28  O   HIS A   3       5.093  12.873  33.445  0.00  0.00    -0.273 OA
BRANCH  26  29
ATOM     29  CA  GLY A   4       2.652  12.315  34.666  0.00  0.00    +0.176 C 
BRANCH  29  30
ATOM     30  C   GLY A   4       1.686  11.439  35.419  0.00  0.00    +0.243 C 
ATOM     31  N   ILE A   5       0.517  11.949  35.828  0.00  0.00    -0.297 N 
ATOM     32  H   ILE A   5       0.298  12.953  35.671  0.00  0.00    +0.150 HD
ATOM     33  O   GLY A   4       2.026  10.283  35.669  0.00  0.00    -0.273 OA
BRANCH  31  34
ATOM     34  CA  ILE A   5      -0.460  11.068  36.506  0.00  0.00    +0.149 C 
BRANCH  34  35
ATOM     35  C   ILE A   5      -0.948  10.089  35.451  0.00  0.00    +0.241 C 
ATOM     36  N   GLY A   6      -0.295   8.946  35.474  0.00  0.00    -0.295 N 
ATOM     37  H   GLY A   6       0.467   8.816  36.169  0.00  0.00    +0.150 HD
ATOM     38  O   ILE A   5      -1.741  10.409  34.556  0.00  0.00    -0.273 OA
BRANCH  36  39
ATOM     39  CA  GLY A   6      -0.600   7.878  34.574  0.00  0.00    +0.176 C 
BRANCH  39  40
ATOM     40  C   GLY A   6       0.447   6.844  34.878  0.00  0.00    +0.243 C 
ATOM     41  O   GLY A   6       0.138   5.743  35.278  0.00  0.00    -0.273 OA
ATOM     42  N   GLY A   7       1.699   7.254  34.779  0.00  0.00    -0.296 N 
ATOM     43  H   GLY A   7       1.881   8.248  34.535  0.00  0.00    +0.150 HD
BRANCH  42  44
ATOM     44  CA  GLY A   7       2.833   6.368  34.998  0.00  0.00    +0.163 C 
BRANCH  44  45
ATOM     45  C   GLY A   7       3.970   6.924  34.152  0.00  0.00    +0.229 C 
ATOM     46  O   GLY A   7       4.181   8.133  34.160  0.00  0.00    -0.286 OA
ENDBRANCH  44  45
ENDBRANCH  42  44
ENDBRANCH  39  40
ENDBRANCH  36  39
ENDBRANCH  34  35
BRANCH  34  47
ATOM     47  CB  ILE A   5      -1.686  11.794  37.186  0.00  0.00    +0.027 C 
ATOM     48  CG2 ILE A   5      -1.207  12.823  38.196  0.00  0.00    +0.002 C 
BRANCH  47  49
ATOM     49  CG1 ILE A   5      -2.634  12.402  36.161  0.00  0.00    +0.002 C 
ATOM     50  CD1 ILE A   5      -2.046  13.607  35.453  0.00  0.00    +0.000 C 
ENDBRANCH  47  49
ENDBRANCH  34  47
ENDBRANCH  31  34
ENDBRANCH  29  30
ENDBRANCH  26  29
ENDBRANCH   1  25
BRANCH   1  51
ATOM     51  CB  HIS A   3       6.864  10.560  35.081  0.00  0.00    +0.076 C 
BRANCH  51  52
ATOM     52  CG  HIS A   3       7.984   9.545  35.006  0.00  0.00    +0.082 A 
ATOM     53  CD2 HIS A   3       9.330   9.709  34.870  0.00  0.00    +0.115 A 
ATOM     54  NE2 HIS A   3       9.874   8.472  34.616  0.00  0.00    -0.221 NA
ATOM     55  CE1 HIS A   3       8.902   7.575  34.621  0.00  0.00    +0.199 A 
ATOM     56  ND1 HIS A   3       7.755   8.192  34.868  0.00  0.00    -0.227 NA
ENDBRANCH  51  52
ENDBRANCH   1  51
TORSDOF 23
REMARK  Name = ../refined-set-2016/1bai/1bai_pocket.pdb
REMARK  228 active torsions:
REMARK  status: ('A' for Active; 'I' for Inactive)
REMARK    1  A    between atoms: _1  and  _3
REMARK    2  A    between atoms: _3  and  _4
REMARK    3  A    between atoms: _3  and  _6
REMARK    4  A    between atoms: _6  and  _7
REMARK    5  A    between atoms: _7  and  _8
REMARK    6  A    between atoms: _8  and  _9
REMARK    7  A    between atoms: _18  and  _20
REMARK    8  A    between atoms: _20  and  _21
REMARK    9  A    between atoms: _20  and  _23
REMARK   10  A    between atoms: _23  and  _24
REMARK   11  A    between atoms: _27  and  _29
REMARK   12  A    between atoms: _29  and  _30
REMARK   13  A    between atoms: _29  and  _32
REMARK   14  A    between atoms: _32  and  _33
REMARK   15  A    between atoms: _36  and  _38
REMARK   16  A    between atoms: _38  and  _39
REMARK   17  A    between atoms: _38  and  _41
REMARK   18  A    between atoms: _41  and  _42
REMARK   19  A    between atoms: _45  and  _47
REMARK   20  A    between atoms: _47  and  _48
REMARK   21  A    between atoms: _47  and  _50
REMARK   22  A    between atoms: _50  and  _51
REMARK   23  A    between atoms: _54  and  _56
REMARK   24  A    between atoms: _56  and  _57
REMARK   25  A    between atoms: _56  and  _59
REMARK   26  A    between atoms: _59  and  _60
REMARK   27  A    between atoms: _63  and  _65
REMARK   28  A    between atoms: _65  and  _66
REMARK   29  A    between atoms: _68  and  _70
REMARK   30  A    between atoms: _70  and  _71
REMARK   31  A    between atoms: _74  and  _76
REMARK   32  A    between atoms: _76  and  _77
REMARK   33  A    between atoms: _76  and  _79
REMARK   34  A    between atoms: _79  and  _80
REMARK   35  A    between atoms: _83  and  _85
REMARK   36  A    between atoms: _85  and  _86
REMARK   37  A    between atoms: _85  and  _88
REMARK   38  A    between atoms: _88  and  _89
REMARK   39  A    between atoms: _92  and  _94
REMARK   40  A    between atoms: _94  and  _95
REMARK   41  A    between atoms: _94  and  _97
REMARK   42  A    between atoms: _97  and  _98
REMARK   43  A    between atoms: _101  and  _103
REMARK   44  A    between atoms: _103  and  _104
REMARK   45  A    between atoms: _103  and  _106
REMARK   46  A    between atoms: _109  and  _111
REMARK   47  A    between atoms: _111  and  _112
REMARK   48  A    between atoms: _115  and  _117
REMARK   49  A    between atoms: _117  and  _118
REMARK   50  A    between atoms: _121  and  _123
REMARK   51  A    between atoms: _123  and  _124
REMARK   52  A    between atoms: _123  and  _126
REMARK   53  A    between atoms: _126  and  _127
REMARK   54  A    between atoms: _133  and  _134
REMARK   55  A    between atoms: _139  and  _141
REMARK   56  A    between atoms: _141  and  _142
REMARK   57  A    between atoms: _141  and  _144
REMARK   58  A    between atoms: _144  and  _145
REMARK   59  A    between atoms: _145  and  _146
REMARK   60  A    between atoms: _151  and  _153
REMARK   61  A    between atoms: _153  and  _154
REMARK   62  A    between atoms: _153  and  _156
REMARK   63  A    between atoms: _156  and  _157
REMARK   64  A    between atoms: _160  and  _162
REMARK   65  A    between atoms: _162  and  _163
REMARK   66  A    between atoms: _162  and  _165
REMARK   67  A    between atoms: _165  and  _166
REMARK   68  A    between atoms: _171  and  _173
REMARK   69  A    between atoms: _173  and  _174
REMARK   70  A    between atoms: _176  and  _178
REMARK   71  A    between atoms: _178  and  _179
REMARK   72  A    between atoms: _178  and  _181
REMARK   73  A    between atoms: _181  and  _182
REMARK   74  A    between atoms: _185  and  _187
REMARK   75  A    between atoms: _187  and  _188
REMARK   76  A    between atoms: _190  and  _192
REMARK   77  A    between atoms: _192  and  _193
REMARK   78  A    between atoms: _195  and  _197
REMARK   79  A    between atoms: _197  and  _198
REMARK   80  A    between atoms: _200  and  _202
REMARK   81  A    between atoms: _202  and  _203
REMARK   82  A    between atoms: _202  and  _205
REMARK   83  A    between atoms: _205  and  _206
REMARK   84  A    between atoms: _209  and  _211
REMARK   85  A    between atoms: _211  and  _212
REMARK   86  A    between atoms: _211  and  _214
REMARK   87  A    between atoms: _217  and  _219
REMARK   88  A    between atoms: _219  and  _220
REMARK   89  A    between atoms: _219  and  _222
REMARK   90  A    between atoms: _222  and  _223
REMARK   91  A    between atoms: _226  and  _228
REMARK   92  A    between atoms: _228  and  _229
REMARK   93  A    between atoms: _232  and  _234
REMARK   94  A    between atoms: _234  and  _235
REMARK   95  A    between atoms: _234  and  _237
REMARK   96  A    between atoms: _237  and  _238
REMARK   97  A    between atoms: _242  and  _243
REMARK   98  A    between atoms: _248  and  _250
REMARK   99  A    between atoms: _250  and  _251
REMARK  100  A    between atoms: _250  and  _253
REMARK  101  A    between atoms: _256  and  _258
REMARK  102  A    between atoms: _258  and  _259
REMARK  103  A    between atoms: _258  and  _261
REMARK  104  A    between atoms: _261  and  _262
REMARK  105  A    between atoms: _267  and  _269
REMARK  106  A    between atoms: _269  and  _270
REMARK  107  A    between atoms: _269  and  _272
REMARK  108  A    between atoms: _272  and  _273
REMARK  109  A    between atoms: _276  and  _278
REMARK  110  A    between atoms: _278  and  _279
REMARK  111  A    between atoms: _278  and  _281
REMARK  112  A    between atoms: _281  and  _282
REMARK  113  A    between atoms: _285  and  _287
REMARK  114  A    between atoms: _287  and  _288
REMARK  115  A    between atoms: _290  and  _292
REMARK  116  A    between atoms: _292  and  _293
REMARK  117  A    between atoms: _292  and  _295
REMARK  118  A    between atoms: _295  and  _296
REMARK  119  A    between atoms: _296  and  _297
REMARK  120  A    between atoms: _297  and  _298
REMARK  121  A    between atoms: _307  and  _309
REMARK  122  A    between atoms: _309  and  _310
REMARK  123  A    between atoms: _309  and  _312
REMARK  124  A    between atoms: _312  and  _313
REMARK  125  A    between atoms: _316  and  _318
REMARK  126  A    between atoms: _318  and  _319
REMARK  127  A    between atoms: _318  and  _321
REMARK  128  A    between atoms: _321  and  _322
REMARK  129  A    between atoms: _327  and  _329
REMARK  130  A    between atoms: _329  and  _330
REMARK  131  A    between atoms: _329  and  _332
REMARK  132  A    between atoms: _332  and  _333
REMARK  133  A    between atoms: _333  and  _334
REMARK  134  A    between atoms: _334  and  _335
REMARK  135  A    between atoms: _344  and  _346
REMARK  136  A    between atoms: _346  and  _347
REMARK  137  A    between atoms: _346  and  _349
REMARK  138  A    between atoms: _349  and  _350
REMARK  139  A    between atoms: _353  and  _355
REMARK  140  A    between atoms: _355  and  _356
REMARK  141  A    between atoms: _355  and  _358
REMARK  142  A    between atoms: _358  and  _359
REMARK  143  A    between atoms: _362  and  _364
REMARK  144  A    between atoms: _364  and  _365
REMARK  145  A    between atoms: _364  and  _367
REMARK  146  A    between atoms: _367  and  _368
REMARK  147  A    between atoms: _371  and  _373
REMARK  148  A    between atoms: _373  and  _374
REMARK  149  A    between atoms: _373  and  _376
REMARK  150  A    between atoms: _376  and  _377
REMARK  151  A    between atoms: _380  and  _382
REMARK  152  A    between atoms: _382  and  _383
REMARK  153  A    between atoms: _382  and  _385
REMARK  154  A    between atoms: _385  and  _386
REMARK  155  A    between atoms: _389  and  _391
REMARK  156  A    between atoms: _391  and  _392
REMARK  157  A    between atoms: _394  and  _396
REMARK  158  A    between atoms: _396  and  _397
REMARK  159  A    between atoms: _400  and  _402
REMARK  160  A    between atoms: _402  and  _403
REMARK  161  A    between atoms: _402  and  _405
REMARK  162  A    between atoms: _405  and  _406
REMARK  163  A    between atoms: _409  and  _411
REMARK  164  A    between atoms: _411  and  _412
REMARK  165  A    between atoms: _411  and  _414
REMARK  166  A    between atoms: _414  and  _415
REMARK  167  A    between atoms: _418  and  _420
REMARK  168  A    between atoms: _420  and  _421
REMARK  169  A    between atoms: _420  and  _423
REMARK  170  A    between atoms: _423  and  _424
REMARK  171  A    between atoms: _427  and  _429
REMARK  172  A    between atoms: _429  and  _430
REMARK  173  A    between atoms: _429  and  _432
REMARK  174  A    between atoms: _435  and  _437
REMARK  175  A    between atoms: _437  and  _438
REMARK  176  A    between atoms: _437  and  _440
REMARK  177  A    between atoms: _440  and  _441
REMARK  178  A    between atoms: _441  and  _442
REMARK  179  A    between atoms: _447  and  _449
REMARK  180  A    between atoms: _449  and  _450
REMARK  181  A    between atoms: _449  and  _452
REMARK  182  A    between atoms: _452  and  _453
REMARK  183  A    between atoms: _456  and  _458
REMARK  184  A    between atoms: _458  and  _459
REMARK  185  A    between atoms: _458  and  _461
REMARK  186  A    between atoms: _461  and  _462
REMARK  187  A    between atoms: _467  and  _469
REMARK  188  A    between atoms: _469  and  _470
REMARK  189  A    between atoms: _472  and  _474
REMARK  190  A    between atoms: _474  and  _475
REMARK  191  A    between atoms: _474  and  _477
REMARK  192  A    between atoms: _477  and  _478
REMARK  193  A    between atoms: _481  and  _483
REMARK  194  A    between atoms: _483  and  _484
REMARK  195  A    between atoms: _486  and  _488
REMARK  196  A    between atoms: _488  and  _489
REMARK  197  A    between atoms: _491  and  _493
REMARK  198  A    between atoms: _493  and  _494
REMARK  199  A    between atoms: _493  and  _496
REMARK  200  A    between atoms: _496  and  _497
REMARK  201  A    between atoms: _500  and  _502
REMARK  202  A    between atoms: _502  and  _503
REMARK  203  A    between atoms: _502  and  _505
REMARK  204  A    between atoms: _505  and  _506
REMARK  205  A    between atoms: _510  and  _511
REMARK  206  A    between atoms: _516  and  _518
REMARK  207  A    between atoms: _518  and  _519
REMARK  208  A    between atoms: _518  and  _521
REMARK  209  A    between atoms: _524  and  _526
REMARK  210  A    between atoms: _526  and  _527
REMARK  211  A    between atoms: _526  and  _529
REMARK  212  A    between atoms: _529  and  _530
REMARK  213  A    between atoms: _535  and  _537
REMARK  214  A    between atoms: _537  and  _538
REMARK  215  A    between atoms: _537  and  _540
REMARK  216  A    between atoms: _540  and  _541
REMARK  217  A    between atoms: _544  and  _546
REMARK  218  A    between atoms: _546  and  _547
REMARK  219  A    between atoms: _546  and  _549
REMARK  220  A    between atoms: _549  and  _550
REMARK  221  A    between atoms: _553  and  _555
REMARK  222  A    between atoms: _555  and  _556
REMARK  223  A    between atoms: _558  and  _560
REMARK  224  A    between atoms: _560  and  _561
REMARK  225  A    between atoms: _560  and  _563
REMARK  226  A    between atoms: _563  and  _564
REMARK  227  A    between atoms: _564  and  _565
REMARK  228  A    between atoms: _565  and  _566
REMARK                            x       y       z     vdW  Elec       q    Type
REMARK                         _______ _______ _______ _____ _____    ______ ____
ROOT
ATOM      1  CA  LEU A   1      10.783  15.617  22.964  0.00  0.00    +0.133 C 
ENDROOT
BRANCH   1   2
ATOM      2  N   LEU A   1      10.756  16.998  22.559  0.00  0.00    -0.239 NA
ATOM      3  H   LEU A   1      10.172  17.674  23.092  0.00  0.00    +0.142 HD
ENDBRANCH   1   2
BRANCH   1   4
ATOM      4  C   LEU A   1       9.601  15.074  22.175  0.00  0.00    +0.224 C 
ATOM      5  O   LEU A   1       8.685  15.862  21.839  0.00  0.00    -0.287 OA
ENDBRANCH   1   4
BRANCH   1   6
ATOM      6  CB  LEU A   1      10.564  15.505  24.473  0.00  0.00    +0.025 C 
BRANCH   6   7
ATOM      7  CG  LEU A   1      11.580  16.254  25.358  0.00  0.00    +0.002 C 
ATOM      8  CD2 LEU A   1      11.276  16.067  26.849  0.00  0.00    +0.000 C 
ATOM      9  CD1 LEU A   1      12.972  15.821  24.990  0.00  0.00    +0.000 C 
ENDBRANCH   6   7
ENDBRANCH   1   6
TORSDOF 4
REMARK  Name = ../refined-set-2016/1bai/1bai_pocket.pdb
REMARK  228 active torsions:
REMARK  status: ('A' for Active; 'I' for Inactive)
REMARK    1  A    between atoms: _1  and  _3
REMARK    2  A    between atoms: _3  and  _4
REMARK    3  A    between atoms: _3  and  _6
REMARK    4  A    between atoms: _6  and  _7
REMARK    5  A    between atoms: _7  and  _8
REMARK    6  A    between atoms: _8  and  _9
REMARK    7  A    between atoms: _18  and  _20
REMARK    8  A    between atoms: _20  and  _21
REMARK    9  A    between atoms: _20  and  _23
REMARK   10  A    between atoms: _23  and  _24
REMARK   11  A    between atoms: _27  and  _29
REMARK   12  A    between atoms: _29  and  _30
REMARK   13  A    between atoms: _29  and  _32
REMARK   14  A    between atoms: _32  and  _33
REMARK   15  A    between atoms: _36  and  _38
REMARK   16  A    between atoms: _38  and  _39
REMARK   17  A    between atoms: _38  and  _41
REMARK   18  A    between atoms: _41  and  _42
REMARK   19  A    between atoms: _45  and  _47
REMARK   20  A    between atoms: _47  and  _48
REMARK   21  A    between atoms: _47  and  _50
REMARK   22  A    between atoms: _50  and  _51
REMARK   23  A    between atoms: _54  and  _56
REMARK   24  A    between atoms: _56  and  _57
REMARK   25  A    between atoms: _56  and  _59
REMARK   26  A    between atoms: _59  and  _60
REMARK   27  A    between atoms: _63  and  _65
REMARK   28  A    between atoms: _65  and  _66
REMARK   29  A    between atoms: _68  and  _70
REMARK   30  A    between atoms: _70  and  _71
REMARK   31  A    between atoms: _74  and  _76
REMARK   32  A    between atoms: _76  and  _77
REMARK   33  A    between atoms: _76  and  _79
REMARK   34  A    between atoms: _79  and  _80
REMARK   35  A    between atoms: _83  and  _85
REMARK   36  A    between atoms: _85  and  _86
REMARK   37  A    between atoms: _85  and  _88
REMARK   38  A    between atoms: _88  and  _89
REMARK   39  A    between atoms: _92  and  _94
REMARK   40  A    between atoms: _94  and  _95
REMARK   41  A    between atoms: _94  and  _97
REMARK   42  A    between atoms: _97  and  _98
REMARK   43  A    between atoms: _101  and  _103
REMARK   44  A    between atoms: _103  and  _104
REMARK   45  A    between atoms: _103  and  _106
REMARK   46  A    between atoms: _109  and  _111
REMARK   47  A    between atoms: _111  and  _112
REMARK   48  A    between atoms: _115  and  _117
REMARK   49  A    between atoms: _117  and  _118
REMARK   50  A    between atoms: _121  and  _123
REMARK   51  A    between atoms: _123  and  _124
REMARK   52  A    between atoms: _123  and  _126
REMARK   53  A    between atoms: _126  and  _127
REMARK   54  A    between atoms: _133  and  _134
REMARK   55  A    between atoms: _139  and  _141
REMARK   56  A    between atoms: _141  and  _142
REMARK   57  A    between atoms: _141  and  _144
REMARK   58  A    between atoms: _144  and  _145
REMARK   59  A    between atoms: _145  and  _146
REMARK   60  A    between atoms: _151  and  _153
REMARK   61  A    between atoms: _153  and  _154
REMARK   62  A    between atoms: _153  and  _156
REMARK   63  A    between atoms: _156  and  _157
REMARK   64  A    between atoms: _160  and  _162
REMARK   65  A    between atoms: _162  and  _163
REMARK   66  A    between atoms: _162  and  _165
REMARK   67  A    between atoms: _165  and  _166
REMARK   68  A    between atoms: _171  and  _173
REMARK   69  A    between atoms: _173  and  _174
REMARK   70  A    between atoms: _176  and  _178
REMARK   71  A    between atoms: _178  and  _179
REMARK   72  A    between atoms: _178  and  _181
REMARK   73  A    between atoms: _181  and  _182
REMARK   74  A    between atoms: _185  and  _187
REMARK   75  A    between atoms: _187  and  _188
REMARK   76  A    between atoms: _190  and  _192
REMARK   77  A    between atoms: _192  and  _193
REMARK   78  A    between atoms: _195  and  _197
REMARK   79  A    between atoms: _197  and  _198
REMARK   80  A    between atoms: _200  and  _202
REMARK   81  A    between atoms: _202  and  _203
REMARK   82  A    between atoms: _202  and  _205
REMARK   83  A    between atoms: _205  and  _206
REMARK   84  A    between atoms: _209  and  _211
REMARK   85  A    between atoms: _211  and  _212
REMARK   86  A    between atoms: _211  and  _214
REMARK   87  A    between atoms: _217  and  _219
REMARK   88  A    between atoms: _219  and  _220
REMARK   89  A    between atoms: _219  and  _222
REMARK   90  A    between atoms: _222  and  _223
REMARK   91  A    between atoms: _226  and  _228
REMARK   92  A    between atoms: _228  and  _229
REMARK   93  A    between atoms: _232  and  _234
REMARK   94  A    between atoms: _234  and  _235
REMARK   95  A    between atoms: _234  and  _237
REMARK   96  A    between atoms: _237  and  _238
REMARK   97  A    between atoms: _242  and  _243
REMARK   98  A    between atoms: _248  and  _250
REMARK   99  A    between atoms: _250  and  _251
REMARK  100  A    between atoms: _250  and  _253
REMARK  101  A    between atoms: _256  and  _258
REMARK  102  A    between atoms: _258  and  _259
REMARK  103  A    between atoms: _258  and  _261
REMARK  104  A    between atoms: _261  and  _262
REMARK  105  A    between atoms: _267  and  _269
REMARK  106  A    between atoms: _269  and  _270
REMARK  107  A    between atoms: _269  and  _272
REMARK  108  A    between atoms: _272  and  _273
REMARK  109  A    between atoms: _276  and  _278
REMARK  110  A    between atoms: _278  and  _279
REMARK  111  A    between atoms: _278  and  _281
REMARK  112  A    between atoms: _281  and  _282
REMARK  113  A    between atoms: _285  and  _287
REMARK  114  A    between atoms: _287  and  _288
REMARK  115  A    between atoms: _290  and  _292
REMARK  116  A    between atoms: _292  and  _293
REMARK  117  A    between atoms: _292  and  _295
REMARK  118  A    between atoms: _295  and  _296
REMARK  119  A    between atoms: _296  and  _297
REMARK  120  A    between atoms: _297  and  _298
REMARK  121  A    between atoms: _307  and  _309
REMARK  122  A    between atoms: _309  and  _310
REMARK  123  A    between atoms: _309  and  _312
REMARK  124  A    between atoms: _312  and  _313
REMARK  125  A    between atoms: _316  and  _318
REMARK  126  A    between atoms: _318  and  _319
REMARK  127  A    between atoms: _318  and  _321
REMARK  128  A    between atoms: _321  and  _322
REMARK  129  A    between atoms: _327  and  _329
REMARK  130  A    between atoms: _329  and  _330
REMARK  131  A    between atoms: _329  and  _332
REMARK  132  A    between atoms: _332  and  _333
REMARK  133  A    between atoms: _333  and  _334
REMARK  134  A    between atoms: _334  and  _335
REMARK  135  A    between atoms: _344  and  _346
REMARK  136  A    between atoms: _346  and  _347
REMARK  137  A    between atoms: _346  and  _349
REMARK  138  A    between atoms: _349  and  _350
REMARK  139  A    between atoms: _353  and  _355
REMARK  140  A    between atoms: _355  and  _356
REMARK  141  A    between atoms: _355  and  _358
REMARK  142  A    between atoms: _358  and  _359
REMARK  143  A    between atoms: _362  and  _364
REMARK  144  A    between atoms: _364  and  _365
REMARK  145  A    between atoms: _364  and  _367
REMARK  146  A    between atoms: _367  and  _368
REMARK  147  A    between atoms: _371  and  _373
REMARK  148  A    between atoms: _373  and  _374
REMARK  149  A    between atoms: _373  and  _376
REMARK  150  A    between atoms: _376  and  _377
REMARK  151  A    between atoms: _380  and  _382
REMARK  152  A    between atoms: _382  and  _383
REMARK  153  A    between atoms: _382  and  _385
REMARK  154  A    between atoms: _385  and  _386
REMARK  155  A    between atoms: _389  and  _391
REMARK  156  A    between atoms: _391  and  _392
REMARK  157  A    between atoms: _394  and  _396
REMARK  158  A    between atoms: _396  and  _397
REMARK  159  A    between atoms: _400  and  _402
REMARK  160  A    between atoms: _402  and  _403
REMARK  161  A    between atoms: _402  and  _405
REMARK  162  A    between atoms: _405  and  _406
REMARK  163  A    between atoms: _409  and  _411
REMARK  164  A    between atoms: _411  and  _412
REMARK  165  A    between atoms: _411  and  _414
REMARK  166  A    between atoms: _414  and  _415
REMARK  167  A    between atoms: _418  and  _420
REMARK  168  A    between atoms: _420  and  _421
REMARK  169  A    between atoms: _420  and  _423
REMARK  170  A    between atoms: _423  and  _424
REMARK  171  A    between atoms: _427  and  _429
REMARK  172  A    between atoms: _429  and  _430
REMARK  173  A    between atoms: _429  and  _432
REMARK  174  A    between atoms: _435  and  _437
REMARK  175  A    between atoms: _437  and  _438
REMARK  176  A    between atoms: _437  and  _440
REMARK  177  A    between atoms: _440  and  _441
REMARK  178  A    between atoms: _441  and  _442
REMARK  179  A    between atoms: _447  and  _449
REMARK  180  A    between atoms: _449  and  _450
REMARK  181  A    between atoms: _449  and  _452
REMARK  182  A    between atoms: _452  and  _453
REMARK  183  A    between atoms: _456  and  _458
REMARK  184  A    between atoms: _458  and  _459
REMARK  185  A    between atoms: _458  and  _461
REMARK  186  A    between atoms: _461  and  _462
REMARK  187  A    between atoms: _467  and  _469
REMARK  188  A    between atoms: _469  and  _470
REMARK  189  A    between atoms: _472  and  _474
REMARK  190  A    between atoms: _474  and  _475
REMARK  191  A    between atoms: _474  and  _477
REMARK  192  A    between atoms: _477  and  _478
REMARK  193  A    between atoms: _481  and  _483
REMARK  194  A    between atoms: _483  and  _484
REMARK  195  A    between atoms: _486  and  _488
REMARK  196  A    between atoms: _488  and  _489
REMARK  197  A    between atoms: _491  and  _493
REMARK  198  A    between atoms: _493  and  _494
REMARK  199  A    between atoms: _493  and  _496
REMARK  200  A    between atoms: _496  and  _497
REMARK  201  A    between atoms: _500  and  _502
REMARK  202  A    between atoms: _502  and  _503
REMARK  203  A    between atoms: _502  and  _505
REMARK  204  A    between atoms: _505  and  _506
REMARK  205  A    between atoms: _510  and  _511
REMARK  206  A    between atoms: _516  and  _518
REMARK  207  A    between atoms: _518  and  _519
REMARK  208  A    between atoms: _518  and  _521
REMARK  209  A    between atoms: _524  and  _526
REMARK  210  A    between atoms: _526  and  _527
REMARK  211  A    between atoms: _526  and  _529
REMARK  212  A    between atoms: _529  and  _530
REMARK  213  A    between atoms: _535  and  _537
REMARK  214  A    between atoms: _537  and  _538
REMARK  215  A    between atoms: _537  and  _540
REMARK  216  A    between atoms: _540  and  _541
REMARK  217  A    between atoms: _544  and  _546
REMARK  218  A    between atoms: _546  and  _547
REMARK  219  A    between atoms: _546  and  _549
REMARK  220  A    between atoms: _549  and  _550
REMARK  221  A    between atoms: _553  and  _555
REMARK  222  A    between atoms: _555  and  _556
REMARK  223  A    between atoms: _558  and  _560
REMARK  224  A    between atoms: _560  and  _561
REMARK  225  A    between atoms: _560  and  _563
REMARK  226  A    between atoms: _563  and  _564
REMARK  227  A    between atoms: _564  and  _565
REMARK  228  A    between atoms: _565  and  _566
REMARK                            x       y       z     vdW  Elec       q    Type
REMARK                         _______ _______ _______ _____ _____    ______ ____
ROOT
ATOM      1  CA  ILE A   5       2.468  20.442  24.977  0.00  0.00    +0.149 C 
ENDROOT
BRANCH   1   2
ATOM      2  C   ILE A   5       3.516  21.520  24.844  0.00  0.00    +0.241 C 
ATOM      3  N   LEU A   6       3.153  22.759  25.145  0.00  0.00    -0.297 N 
ATOM      4  H   LEU A   6       2.170  22.992  25.393  0.00  0.00    +0.150 HD
ATOM      5  O   ILE A   5       4.641  21.247  24.385  0.00  0.00    -0.273 OA
BRANCH   3   6
ATOM      6  CA  LEU A   6       4.184  23.770  25.113  0.00  0.00    +0.149 C 
BRANCH   6   7
ATOM      7  C   LEU A   6       4.561  23.928  26.594  0.00  0.00    +0.241 C 
ATOM      8  O   LEU A   6       3.815  24.449  27.395  0.00  0.00    -0.273 OA
ATOM      9  N   GLY A   7       5.622  23.238  26.972  0.00  0.00    -0.295 N 
ATOM     10  H   GLY A   7       6.141  22.669  26.272  0.00  0.00    +0.150 HD
BRANCH   9  11
ATOM     11  CA  GLY A   7       6.067  23.263  28.332  0.00  0.00    +0.176 C 
BRANCH  11  12
ATOM     12  C   GLY A   7       6.720  24.543  28.747  0.00  0.00    +0.243 C 
ATOM     13  N   ARG A   8       6.982  24.632  30.020  0.00  0.00    -0.298 N 
ATOM     14  H   ARG A   8       6.752  23.835  30.648  0.00  0.00    +0.150 HD
ATOM     15  O   GLY A   7       7.041  25.384  27.966  0.00  0.00    -0.273 OA
BRANCH  13  16
ATOM     16  CA  ARG A   8       7.574  25.796  30.559  0.00  0.00    +0.137 C 
BRANCH  16  17
ATOM     17  C   ARG A   8       8.829  26.284  29.853  0.00  0.00    +0.227 C 
ATOM     18  O   ARG A   8       8.952  27.471  29.644  0.00  0.00    -0.286 OA
ENDBRANCH  16  17
BRANCH  16  19
ATOM     19  CB  ARG A   8       7.767  25.636  32.062  0.00  0.00    +0.031 C 
BRANCH  19  20
ATOM     20  CG  ARG A   8       6.685  26.377  32.848  0.00  0.00    +0.045 C 
BRANCH  20  21
ATOM     21  CD  ARG A   8       6.525  25.839  34.235  0.00  0.00    +0.174 C 
BRANCH  21  22
ATOM     22  NE  ARG A   8       7.854  25.767  34.739  0.00  0.00    -0.265 N 
ATOM     23  CZ  ARG A   8       8.495  24.645  34.997  0.00  0.00    +0.342 C 
ATOM     24  NH2 ARG A   8       9.763  24.693  35.383  0.00  0.00    -0.292 N 
ATOM     25 HH21 ARG A   8      10.278  23.813  35.589  0.00  0.00    +0.255 HD
ATOM     26 HH22 ARG A   8      10.243  25.611  35.480  0.00  0.00    +0.255 HD
ATOM     27  NH1 ARG A   8       7.825  23.517  35.063  0.00  0.00    -0.292 N 
ATOM     28 HH11 ARG A   8       8.324  22.627  35.266  0.00  0.00    +0.255 HD
ATOM     29 HH12 ARG A   8       6.796  23.514  34.912  0.00  0.00    +0.255 HD
ATOM     30  HE  ARG A   8       8.354  26.662  34.916  0.00  0.00    +0.259 HD
ENDBRANCH  21  22
ENDBRANCH  20  21
ENDBRANCH  19  20
ENDBRANCH  16  19
ENDBRANCH  13  16
ENDBRANCH  11  12
ENDBRANCH   9  11
ENDBRANCH   6   7
BRANCH   6  31
ATOM     31  CB  LEU A   6       3.741  25.062  24.408  0.00  0.00    +0.029 C 
BRANCH  31  32
ATOM     32  CG  LEU A   6       3.273  24.818  22.957  0.00  0.00    +0.002 C 
ATOM     33  CD2 LEU A   6       2.920  26.113  22.267  0.00  0.00    +0.000 C 
ATOM     34  CD1 LEU A   6       4.363  24.032  22.200  0.00  0.00    +0.000 C 
ENDBRANCH  31  32
ENDBRANCH   6  31
ENDBRANCH   3   6
ENDBRANCH   1   2
BRANCH   1  36
ATOM     35  C   ASN A   4       1.290  19.627  23.049  0.00  0.00    +0.241 C 
ATOM     36  N   ILE A   5       2.342  19.561  23.832  0.00  0.00    -0.297 N 
ATOM     37  H   ILE A   5       3.092  18.870  23.629  0.00  0.00    +0.150 HD
ATOM     38  O   ASN A   4       0.411  20.453  23.239  0.00  0.00    -0.273 OA
BRANCH  35  39
ATOM     39  CA  ASN A   4       1.208  18.595  21.915  0.00  0.00    +0.158 C 
BRANCH  39  42
ATOM     40  C   VAL A   3      -0.365  16.942  22.851  0.00  0.00    +0.241 C 
ATOM     41  O   VAL A   3       0.532  16.359  23.485  0.00  0.00    -0.273 OA
ATOM     42  N   ASN A   4      -0.122  17.970  22.025  0.00  0.00    -0.297 N 
ATOM     43  H   ASN A   4      -0.900  18.339  21.441  0.00  0.00    +0.150 HD
BRANCH  40  44
ATOM     44  CA  VAL A   3      -1.815  16.404  22.916  0.00  0.00    +0.149 C 
BRANCH  44  46
ATOM     45  C   PRO A   2      -2.694  14.177  23.106  0.00  0.00    +0.241 C 
ATOM     46  N   VAL A   3      -1.815  15.078  23.521  0.00  0.00    -0.297 N 
ATOM     47  H   VAL A   3      -1.133  14.842  24.270  0.00  0.00    +0.150 HD
ATOM     48  O   PRO A   2      -3.522  14.429  22.215  0.00  0.00    -0.273 OA
BRANCH  45  54
ATOM     49  C   THR A   1      -0.223  12.536  23.519  0.00  0.00    +0.244 C 
ATOM     50  N   PRO A   2      -1.294  12.584  24.353  0.00  0.00    -0.272 N 
ATOM     51  CD  PRO A   2      -1.360  12.483  25.827  0.00  0.00    +0.094 C 
ATOM     52  CG  PRO A   2      -2.634  13.193  26.129  0.00  0.00    +0.024 C 
ATOM     53  CB  PRO A   2      -3.552  12.688  24.993  0.00  0.00    +0.031 C 
ATOM     54  CA  PRO A   2      -2.630  12.786  23.772  0.00  0.00    +0.152 C 
ATOM     55  O   THR A   1      -0.323  12.755  22.300  0.00  0.00    -0.273 OA
BRANCH  49  56
ATOM     56  CA  THR A   1       1.154  12.341  24.135  0.00  0.00    +0.172 C 
BRANCH  56  57
ATOM     57  N   THR A   1       1.874  11.406  23.302  0.00  0.00    -0.236 NA
ATOM     58  H   THR A   1       2.497  11.788  22.562  0.00  0.00    +0.142 HD
ENDBRANCH  56  57
BRANCH  56  59
ATOM     59  CB  THR A   1       1.789  13.713  24.002  0.00  0.00    +0.135 C 
ATOM     60  CG2 THR A   1       1.957  14.376  25.339  0.00  0.00    +0.034 C 
BRANCH  59  61
ATOM     61  OG1 THR A   1       3.047  13.567  23.337  0.00  0.00    -0.383 OA
ATOM     62  HG1 THR A   1       2.901  13.173  22.441  0.00  0.00    +0.210 HD
ENDBRANCH  59  61
ENDBRANCH  56  59
ENDBRANCH  49  56
ENDBRANCH  45  54
ENDBRANCH  44  46
BRANCH  44  63
ATOM     63  CB  VAL A   3      -2.727  17.329  23.730  0.00  0.00    +0.027 C 
ATOM     64  CG2 VAL A   3      -2.363  17.239  25.212  0.00  0.00    +0.002 C 
ATOM     65  CG1 VAL A   3      -2.647  18.740  23.195  0.00  0.00    +0.002 C 
ENDBRANCH  44  63
ENDBRANCH  40  44
ENDBRANCH  39  42
BRANCH  39  66
ATOM     66  CB  ASN A   4       1.451  19.224  20.527  0.00  0.00    +0.114 C 
BRANCH  66  67
ATOM     67  CG  ASN A   4       1.022  18.289  19.365  0.00  0.00    +0.222 C 
ATOM     68  ND2 ASN A   4      -0.221  18.401  18.985  0.00  0.00    -0.329 N 
ATOM     69 HD21 ASN A   4      -0.845  19.093  19.446  0.00  0.00    +0.145 HD
ATOM     70 HD22 ASN A   4      -0.588  17.798  18.221  0.00  0.00    +0.145 HD
ATOM     71  OD1 ASN A   4       1.789  17.478  18.839  0.00  0.00    -0.275 OA
ENDBRANCH  66  67
ENDBRANCH  39  66
ENDBRANCH  35  39
ENDBRANCH   1  36
BRANCH   1  72
ATOM     72  CB  ILE A   5       2.750  19.564  26.242  0.00  0.00    +0.027 C 
ATOM     73  CG2 ILE A   5       3.379  20.350  27.337  0.00  0.00    +0.002 C 
BRANCH  72  74
ATOM     74  CG1 ILE A   5       1.443  18.887  26.680  0.00  0.00    +0.002 C 
ATOM     75  CD1 ILE A   5       1.581  17.397  26.912  0.00  0.00    +0.000 C 
ENDBRANCH  72  74
ENDBRANCH   1  72
TORSDOF 28
REMARK  Name = ../refined-set-2016/1bai/1bai_pocket.pdb
REMARK  228 active torsions:
REMARK  status: ('A' for Active; 'I' for Inactive)
REMARK    1  A    between atoms: _1  and  _3
REMARK    2  A    between atoms: _3  and  _4
REMARK    3  A    between atoms: _3  and  _6
REMARK    4  A    between atoms: _6  and  _7
REMARK    5  A    between atoms: _7  and  _8
REMARK    6  A    between atoms: _8  and  _9
REMARK    7  A    between atoms: _18  and  _20
REMARK    8  A    between atoms: _20  and  _21
REMARK    9  A    between atoms: _20  and  _23
REMARK   10  A    between atoms: _23  and  _24
REMARK   11  A    between atoms: _27  and  _29
REMARK   12  A    between atoms: _29  and  _30
REMARK   13  A    between atoms: _29  and  _32
REMARK   14  A    between atoms: _32  and  _33
REMARK   15  A    between atoms: _36  and  _38
REMARK   16  A    between atoms: _38  and  _39
REMARK   17  A    between atoms: _38  and  _41
REMARK   18  A    between atoms: _41  and  _42
REMARK   19  A    between atoms: _45  and  _47
REMARK   20  A    between atoms: _47  and  _48
REMARK   21  A    between atoms: _47  and  _50
REMARK   22  A    between atoms: _50  and  _51
REMARK   23  A    between atoms: _54  and  _56
REMARK   24  A    between atoms: _56  and  _57
REMARK   25  A    between atoms: _56  and  _59
REMARK   26  A    between atoms: _59  and  _60
REMARK   27  A    between atoms: _63  and  _65
REMARK   28  A    between atoms: _65  and  _66
REMARK   29  A    between atoms: _68  and  _70
REMARK   30  A    between atoms: _70  and  _71
REMARK   31  A    between atoms: _74  and  _76
REMARK   32  A    between atoms: _76  and  _77
REMARK   33  A    between atoms: _76  and  _79
REMARK   34  A    between atoms: _79  and  _80
REMARK   35  A    between atoms: _83  and  _85
REMARK   36  A    between atoms: _85  and  _86
REMARK   37  A    between atoms: _85  and  _88
REMARK   38  A    between atoms: _88  and  _89
REMARK   39  A    between atoms: _92  and  _94
REMARK   40  A    between atoms: _94  and  _95
REMARK   41  A    between atoms: _94  and  _97
REMARK   42  A    between atoms: _97  and  _98
REMARK   43  A    between atoms: _101  and  _103
REMARK   44  A    between atoms: _103  and  _104
REMARK   45  A    between atoms: _103  and  _106
REMARK   46  A    between atoms: _109  and  _111
REMARK   47  A    between atoms: _111  and  _112
REMARK   48  A    between atoms: _115  and  _117
REMARK   49  A    between atoms: _117  and  _118
REMARK   50  A    between atoms: _121  and  _123
REMARK   51  A    between atoms: _123  and  _124
REMARK   52  A    between atoms: _123  and  _126
REMARK   53  A    between atoms: _126  and  _127
REMARK   54  A    between atoms: _133  and  _134
REMARK   55  A    between atoms: _139  and  _141
REMARK   56  A    between atoms: _141  and  _142
REMARK   57  A    between atoms: _141  and  _144
REMARK   58  A    between atoms: _144  and  _145
REMARK   59  A    between atoms: _145  and  _146
REMARK   60  A    between atoms: _151  and  _153
REMARK   61  A    between atoms: _153  and  _154
REMARK   62  A    between atoms: _153  and  _156
REMARK   63  A    between atoms: _156  and  _157
REMARK   64  A    between atoms: _160  and  _162
REMARK   65  A    between atoms: _162  and  _163
REMARK   66  A    between atoms: _162  and  _165
REMARK   67  A    between atoms: _165  and  _166
REMARK   68  A    between atoms: _171  and  _173
REMARK   69  A    between atoms: _173  and  _174
REMARK   70  A    between atoms: _176  and  _178
REMARK   71  A    between atoms: _178  and  _179
REMARK   72  A    between atoms: _178  and  _181
REMARK   73  A    between atoms: _181  and  _182
REMARK   74  A    between atoms: _185  and  _187
REMARK   75  A    between atoms: _187  and  _188
REMARK   76  A    between atoms: _190  and  _192
REMARK   77  A    between atoms: _192  and  _193
REMARK   78  A    between atoms: _195  and  _197
REMARK   79  A    between atoms: _197  and  _198
REMARK   80  A    between atoms: _200  and  _202
REMARK   81  A    between atoms: _202  and  _203
REMARK   82  A    between atoms: _202  and  _205
REMARK   83  A    between atoms: _205  and  _206
REMARK   84  A    between atoms: _209  and  _211
REMARK   85  A    between atoms: _211  and  _212
REMARK   86  A    between atoms: _211  and  _214
REMARK   87  A    between atoms: _217  and  _219
REMARK   88  A    between atoms: _219  and  _220
REMARK   89  A    between atoms: _219  and  _222
REMARK   90  A    between atoms: _222  and  _223
REMARK   91  A    between atoms: _226  and  _228
REMARK   92  A    between atoms: _228  and  _229
REMARK   93  A    between atoms: _232  and  _234
REMARK   94  A    between atoms: _234  and  _235
REMARK   95  A    between atoms: _234  and  _237
REMARK   96  A    between atoms: _237  and  _238
REMARK   97  A    between atoms: _242  and  _243
REMARK   98  A    between atoms: _248  and  _250
REMARK   99  A    between atoms: _250  and  _251
REMARK  100  A    between atoms: _250  and  _253
REMARK  101  A    between atoms: _256  and  _258
REMARK  102  A    between atoms: _258  and  _259
REMARK  103  A    between atoms: _258  and  _261
REMARK  104  A    between atoms: _261  and  _262
REMARK  105  A    between atoms: _267  and  _269
REMARK  106  A    between atoms: _269  and  _270
REMARK  107  A    between atoms: _269  and  _272
REMARK  108  A    between atoms: _272  and  _273
REMARK  109  A    between atoms: _276  and  _278
REMARK  110  A    between atoms: _278  and  _279
REMARK  111  A    between atoms: _278  and  _281
REMARK  112  A    between atoms: _281  and  _282
REMARK  113  A    between atoms: _285  and  _287
REMARK  114  A    between atoms: _287  and  _288
REMARK  115  A    between atoms: _290  and  _292
REMARK  116  A    between atoms: _292  and  _293
REMARK  117  A    between atoms: _292  and  _295
REMARK  118  A    between atoms: _295  and  _296
REMARK  119  A    between atoms: _296  and  _297
REMARK  120  A    between atoms: _297  and  _298
REMARK  121  A    between atoms: _307  and  _309
REMARK  122  A    between atoms: _309  and  _310
REMARK  123  A    between atoms: _309  and  _312
REMARK  124  A    between atoms: _312  and  _313
REMARK  125  A    between atoms: _316  and  _318
REMARK  126  A    between atoms: _318  and  _319
REMARK  127  A    between atoms: _318  and  _321
REMARK  128  A    between atoms: _321  and  _322
REMARK  129  A    between atoms: _327  and  _329
REMARK  130  A    between atoms: _329  and  _330
REMARK  131  A    between atoms: _329  and  _332
REMARK  132  A    between atoms: _332  and  _333
REMARK  133  A    between atoms: _333  and  _334
REMARK  134  A    between atoms: _334  and  _335
REMARK  135  A    between atoms: _344  and  _346
REMARK  136  A    between atoms: _346  and  _347
REMARK  137  A    between atoms: _346  and  _349
REMARK  138  A    between atoms: _349  and  _350
REMARK  139  A    between atoms: _353  and  _355
REMARK  140  A    between atoms: _355  and  _356
REMARK  141  A    between atoms: _355  and  _358
REMARK  142  A    between atoms: _358  and  _359
REMARK  143  A    between atoms: _362  and  _364
REMARK  144  A    between atoms: _364  and  _365
REMARK  145  A    between atoms: _364  and  _367
REMARK  146  A    between atoms: _367  and  _368
REMARK  147  A    between atoms: _371  and  _373
REMARK  148  A    between atoms: _373  and  _374
REMARK  149  A    between atoms: _373  and  _376
REMARK  150  A    between atoms: _376  and  _377
REMARK  151  A    between atoms: _380  and  _382
REMARK  152  A    between atoms: _382  and  _383
REMARK  153  A    between atoms: _382  and  _385
REMARK  154  A    between atoms: _385  and  _386
REMARK  155  A    between atoms: _389  and  _391
REMARK  156  A    between atoms: _391  and  _392
REMARK  157  A    between atoms: _394  and  _396
REMARK  158  A    between atoms: _396  and  _397
REMARK  159  A    between atoms: _400  and  _402
REMARK  160  A    between atoms: _402  and  _403
REMARK  161  A    between atoms: _402  and  _405
REMARK  162  A    between atoms: _405  and  _406
REMARK  163  A    between atoms: _409  and  _411
REMARK  164  A    between atoms: _411  and  _412
REMARK  165  A    between atoms: _411  and  _414
REMARK  166  A    between atoms: _414  and  _415
REMARK  167  A    between atoms: _418  and  _420
REMARK  168  A    between atoms: _420  and  _421
REMARK  169  A    between atoms: _420  and  _423
REMARK  170  A    between atoms: _423  and  _424
REMARK  171  A    between atoms: _427  and  _429
REMARK  172  A    between atoms: _429  and  _430
REMARK  173  A    between atoms: _429  and  _432
REMARK  174  A    between atoms: _435  and  _437
REMARK  175  A    between atoms: _437  and  _438
REMARK  176  A    between atoms: _437  and  _440
REMARK  177  A    between atoms: _440  and  _441
REMARK  178  A    between atoms: _441  and  _442
REMARK  179  A    between atoms: _447  and  _449
REMARK  180  A    between atoms: _449  and  _450
REMARK  181  A    between atoms: _449  and  _452
REMARK  182  A    between atoms: _452  and  _453
REMARK  183  A    between atoms: _456  and  _458
REMARK  184  A    between atoms: _458  and  _459
REMARK  185  A    between atoms: _458  and  _461
REMARK  186  A    between atoms: _461  and  _462
REMARK  187  A    between atoms: _467  and  _469
REMARK  188  A    between atoms: _469  and  _470
REMARK  189  A    between atoms: _472  and  _474
REMARK  190  A    between atoms: _474  and  _475
REMARK  191  A    between atoms: _474  and  _477
REMARK  192  A    between atoms: _477  and  _478
REMARK  193  A    between atoms: _481  and  _483
REMARK  194  A    between atoms: _483  and  _484
REMARK  195  A    between atoms: _486  and  _488
REMARK  196  A    between atoms: _488  and  _489
REMARK  197  A    between atoms: _491  and  _493
REMARK  198  A    between atoms: _493  and  _494
REMARK  199  A    between atoms: _493  and  _496
REMARK  200  A    between atoms: _496  and  _497
REMARK  201  A    between atoms: _500  and  _502
REMARK  202  A    between atoms: _502  and  _503
REMARK  203  A    between atoms: _502  and  _505
REMARK  204  A    between atoms: _505  and  _506
REMARK  205  A    between atoms: _510  and  _511
REMARK  206  A    between atoms: _516  and  _518
REMARK  207  A    between atoms: _518  and  _519
REMARK  208  A    between atoms: _518  and  _521
REMARK  209  A    between atoms: _524  and  _526
REMARK  210  A    between atoms: _526  and  _527
REMARK  211  A    between atoms: _526  and  _529
REMARK  212  A    between atoms: _529  and  _530
REMARK  213  A    between atoms: _535  and  _537
REMARK  214  A    between atoms: _537  and  _538
REMARK  215  A    between atoms: _537  and  _540
REMARK  216  A    between atoms: _540  and  _541
REMARK  217  A    between atoms: _544  and  _546
REMARK  218  A    between atoms: _546  and  _547
REMARK  219  A    between atoms: _546  and  _549
REMARK  220  A    between atoms: _549  and  _550
REMARK  221  A    between atoms: _553  and  _555
REMARK  222  A    between atoms: _555  and  _556
REMARK  223  A    between atoms: _558  and  _560
REMARK  224  A    between atoms: _560  and  _561
REMARK  225  A    between atoms: _560  and  _563
REMARK  226  A    between atoms: _563  and  _564
REMARK  227  A    between atoms: _564  and  _565
REMARK  228  A    between atoms: _565  and  _566
REMARK                            x       y       z     vdW  Elec       q    Type
REMARK                         _______ _______ _______ _____ _____    ______ ____
ROOT
ATOM      1  O   HOH     1       0.025  13.951  32.988  0.00  0.00    +0.000 OA
ENDROOT
TORSDOF 0
REMARK  Name = ../refined-set-2016/1bai/1bai_pocket.pdb
REMARK  228 active torsions:
REMARK  status: ('A' for Active; 'I' for Inactive)
REMARK    1  A    between atoms: _1  and  _3
REMARK    2  A    between atoms: _3  and  _4
REMARK    3  A    between atoms: _3  and  _6
REMARK    4  A    between atoms: _6  and  _7
REMARK    5  A    between atoms: _7  and  _8
REMARK    6  A    between atoms: _8  and  _9
REMARK    7  A    between atoms: _18  and  _20
REMARK    8  A    between atoms: _20  and  _21
REMARK    9  A    between atoms: _20  and  _23
REMARK   10  A    between atoms: _23  and  _24
REMARK   11  A    between atoms: _27  and  _29
REMARK   12  A    between atoms: _29  and  _30
REMARK   13  A    between atoms: _29  and  _32
REMARK   14  A    between atoms: _32  and  _33
REMARK   15  A    between atoms: _36  and  _38
REMARK   16  A    between atoms: _38  and  _39
REMARK   17  A    between atoms: _38  and  _41
REMARK   18  A    between atoms: _41  and  _42
REMARK   19  A    between atoms: _45  and  _47
REMARK   20  A    between atoms: _47  and  _48
REMARK   21  A    between atoms: _47  and  _50
REMARK   22  A    between atoms: _50  and  _51
REMARK   23  A    between atoms: _54  and  _56
REMARK   24  A    between atoms: _56  and  _57
REMARK   25  A    between atoms: _56  and  _59
REMARK   26  A    between atoms: _59  and  _60
REMARK   27  A    between atoms: _63  and  _65
REMARK   28  A    between atoms: _65  and  _66
REMARK   29  A    between atoms: _68  and  _70
REMARK   30  A    between atoms: _70  and  _71
REMARK   31  A    between atoms: _74  and  _76
REMARK   32  A    between atoms: _76  and  _77
REMARK   33  A    between atoms: _76  and  _79
REMARK   34  A    between atoms: _79  and  _80
REMARK   35  A    between atoms: _83  and  _85
REMARK   36  A    between atoms: _85  and  _86
REMARK   37  A    between atoms: _85  and  _88
REMARK   38  A    between atoms: _88  and  _89
REMARK   39  A    between atoms: _92  and  _94
REMARK   40  A    between atoms: _94  and  _95
REMARK   41  A    between atoms: _94  and  _97
REMARK   42  A    between atoms: _97  and  _98
REMARK   43  A    between atoms: _101  and  _103
REMARK   44  A    between atoms: _103  and  _104
REMARK   45  A    between atoms: _103  and  _106
REMARK   46  A    between atoms: _109  and  _111
REMARK   47  A    between atoms: _111  and  _112
REMARK   48  A    between atoms: _115  and  _117
REMARK   49  A    between atoms: _117  and  _118
REMARK   50  A    between atoms: _121  and  _123
REMARK   51  A    between atoms: _123  and  _124
REMARK   52  A    between atoms: _123  and  _126
REMARK   53  A    between atoms: _126  and  _127
REMARK   54  A    between atoms: _133  and  _134
REMARK   55  A    between atoms: _139  and  _141
REMARK   56  A    between atoms: _141  and  _142
REMARK   57  A    between atoms: _141  and  _144
REMARK   58  A    between atoms: _144  and  _145
REMARK   59  A    between atoms: _145  and  _146
REMARK   60  A    between atoms: _151  and  _153
REMARK   61  A    between atoms: _153  and  _154
REMARK   62  A    between atoms: _153  and  _156
REMARK   63  A    between atoms: _156  and  _157
REMARK   64  A    between atoms: _160  and  _162
REMARK   65  A    between atoms: _162  and  _163
REMARK   66  A    between atoms: _162  and  _165
REMARK   67  A    between atoms: _165  and  _166
REMARK   68  A    between atoms: _171  and  _173
REMARK   69  A    between atoms: _173  and  _174
REMARK   70  A    between atoms: _176  and  _178
REMARK   71  A    between atoms: _178  and  _179
REMARK   72  A    between atoms: _178  and  _181
REMARK   73  A    between atoms: _181  and  _182
REMARK   74  A    between atoms: _185  and  _187
REMARK   75  A    between atoms: _187  and  _188
REMARK   76  A    between atoms: _190  and  _192
REMARK   77  A    between atoms: _192  and  _193
REMARK   78  A    between atoms: _195  and  _197
REMARK   79  A    between atoms: _197  and  _198
REMARK   80  A    between atoms: _200  and  _202
REMARK   81  A    between atoms: _202  and  _203
REMARK   82  A    between atoms: _202  and  _205
REMARK   83  A    between atoms: _205  and  _206
REMARK   84  A    between atoms: _209  and  _211
REMARK   85  A    between atoms: _211  and  _212
REMARK   86  A    between atoms: _211  and  _214
REMARK   87  A    between atoms: _217  and  _219
REMARK   88  A    between atoms: _219  and  _220
REMARK   89  A    between atoms: _219  and  _222
REMARK   90  A    between atoms: _222  and  _223
REMARK   91  A    between atoms: _226  and  _228
REMARK   92  A    between atoms: _228  and  _229
REMARK   93  A    between atoms: _232  and  _234
REMARK   94  A    between atoms: _234  and  _235
REMARK   95  A    between atoms: _234  and  _237
REMARK   96  A    between atoms: _237  and  _238
REMARK   97  A    between atoms: _242  and  _243
REMARK   98  A    between atoms: _248  and  _250
REMARK   99  A    between atoms: _250  and  _251
REMARK  100  A    between atoms: _250  and  _253
REMARK  101  A    between atoms: _256  and  _258
REMARK  102  A    between atoms: _258  and  _259
REMARK  103  A    between atoms: _258  and  _261
REMARK  104  A    between atoms: _261  and  _262
REMARK  105  A    between atoms: _267  and  _269
REMARK  106  A    between atoms: _269  and  _270
REMARK  107  A    between atoms: _269  and  _272
REMARK  108  A    between atoms: _272  and  _273
REMARK  109  A    between atoms: _276  and  _278
REMARK  110  A    between atoms: _278  and  _279
REMARK  111  A    between atoms: _278  and  _281
REMARK  112  A    between atoms: _281  and  _282
REMARK  113  A    between atoms: _285  and  _287
REMARK  114  A    between atoms: _287  and  _288
REMARK  115  A    between atoms: _290  and  _292
REMARK  116  A    between atoms: _292  and  _293
REMARK  117  A    between atoms: _292  and  _295
REMARK  118  A    between atoms: _295  and  _296
REMARK  119  A    between atoms: _296  and  _297
REMARK  120  A    between atoms: _297  and  _298
REMARK  121  A    between atoms: _307  and  _309
REMARK  122  A    between atoms: _309  and  _310
REMARK  123  A    between atoms: _309  and  _312
REMARK  124  A    between atoms: _312  and  _313
REMARK  125  A    between atoms: _316  and  _318
REMARK  126  A    between atoms: _318  and  _319
REMARK  127  A    between atoms: _318  and  _321
REMARK  128  A    between atoms: _321  and  _322
REMARK  129  A    between atoms: _327  and  _329
REMARK  130  A    between atoms: _329  and  _330
REMARK  131  A    between atoms: _329  and  _332
REMARK  132  A    between atoms: _332  and  _333
REMARK  133  A    between atoms: _333  and  _334
REMARK  134  A    between atoms: _334  and  _335
REMARK  135  A    between atoms: _344  and  _346
REMARK  136  A    between atoms: _346  and  _347
REMARK  137  A    between atoms: _346  and  _349
REMARK  138  A    between atoms: _349  and  _350
REMARK  139  A    between atoms: _353  and  _355
REMARK  140  A    between atoms: _355  and  _356
REMARK  141  A    between atoms: _355  and  _358
REMARK  142  A    between atoms: _358  and  _359
REMARK  143  A    between atoms: _362  and  _364
REMARK  144  A    between atoms: _364  and  _365
REMARK  145  A    between atoms: _364  and  _367
REMARK  146  A    between atoms: _367  and  _368
REMARK  147  A    between atoms: _371  and  _373
REMARK  148  A    between atoms: _373  and  _374
REMARK  149  A    between atoms: _373  and  _376
REMARK  150  A    between atoms: _376  and  _377
REMARK  151  A    between atoms: _380  and  _382
REMARK  152  A    between atoms: _382  and  _383
REMARK  153  A    between atoms: _382  and  _385
REMARK  154  A    between atoms: _385  and  _386
REMARK  155  A    between atoms: _389  and  _391
REMARK  156  A    between atoms: _391  and  _392
REMARK  157  A    between atoms: _394  and  _396
REMARK  158  A    between atoms: _396  and  _397
REMARK  159  A    between atoms: _400  and  _402
REMARK  160  A    between atoms: _402  and  _403
REMARK  161  A    between atoms: _402  and  _405
REMARK  162  A    between atoms: _405  and  _406
REMARK  163  A    between atoms: _409  and  _411
REMARK  164  A    between atoms: _411  and  _412
REMARK  165  A    between atoms: _411  and  _414
REMARK  166  A    between atoms: _414  and  _415
REMARK  167  A    between atoms: _418  and  _420
REMARK  168  A    between atoms: _420  and  _421
REMARK  169  A    between atoms: _420  and  _423
REMARK  170  A    between atoms: _423  and  _424
REMARK  171  A    between atoms: _427  and  _429
REMARK  172  A    between atoms: _429  and  _430
REMARK  173  A    between atoms: _429  and  _432
REMARK  174  A    between atoms: _435  and  _437
REMARK  175  A    between atoms: _437  and  _438
REMARK  176  A    between atoms: _437  and  _440
REMARK  177  A    between atoms: _440  and  _441
REMARK  178  A    between atoms: _441  and  _442
REMARK  179  A    between atoms: _447  and  _449
REMARK  180  A    between atoms: _449  and  _450
REMARK  181  A    between atoms: _449  and  _452
REMARK  182  A    between atoms: _452  and  _453
REMARK  183  A    between atoms: _456  and  _458
REMARK  184  A    between atoms: _458  and  _459
REMARK  185  A    between atoms: _458  and  _461
REMARK  186  A    between atoms: _461  and  _462
REMARK  187  A    between atoms: _467  and  _469
REMARK  188  A    between atoms: _469  and  _470
REMARK  189  A    between atoms: _472  and  _474
REMARK  190  A    between atoms: _474  and  _475
REMARK  191  A    between atoms: _474  and  _477
REMARK  192  A    between atoms: _477  and  _478
REMARK  193  A    between atoms: _481  and  _483
REMARK  194  A    between atoms: _483  and  _484
REMARK  195  A    between atoms: _486  and  _488
REMARK  196  A    between atoms: _488  and  _489
REMARK  197  A    between atoms: _491  and  _493
REMARK  198  A    between atoms: _493  and  _494
REMARK  199  A    between atoms: _493  and  _496
REMARK  200  A    between atoms: _496  and  _497
REMARK  201  A    between atoms: _500  and  _502
REMARK  202  A    between atoms: _502  and  _503
REMARK  203  A    between atoms: _502  and  _505
REMARK  204  A    between atoms: _505  and  _506
REMARK  205  A    between atoms: _510  and  _511
REMARK  206  A    between atoms: _516  and  _518
REMARK  207  A    between atoms: _518  and  _519
REMARK  208  A    between atoms: _518  and  _521
REMARK  209  A    between atoms: _524  and  _526
REMARK  210  A    between atoms: _526  and  _527
REMARK  211  A    between atoms: _526  and  _529
REMARK  212  A    between atoms: _529  and  _530
REMARK  213  A    between atoms: _535  and  _537
REMARK  214  A    between atoms: _537  and  _538
REMARK  215  A    between atoms: _537  and  _540
REMARK  216  A    between atoms: _540  and  _541
REMARK  217  A    between atoms: _544  and  _546
REMARK  218  A    between atoms: _546  and  _547
REMARK  219  A    between atoms: _546  and  _549
REMARK  220  A    between atoms: _549  and  _550
REMARK  221  A    between atoms: _553  and  _555
REMARK  222  A    between atoms: _555  and  _556
REMARK  223  A    between atoms: _558  and  _560
REMARK  224  A    between atoms: _560  and  _561
REMARK  225  A    between atoms: _560  and  _563
REMARK  226  A    between atoms: _563  and  _564
REMARK  227  A    between atoms: _564  and  _565
REMARK  228  A    between atoms: _565  and  _566
REMARK                            x       y       z     vdW  Elec       q    Type
REMARK                         _______ _______ _______ _____ _____    ______ ____
ROOT
ATOM      1  O   HOH     1      13.604  18.073  40.563  0.00  0.00    +0.000 OA
ENDROOT
TORSDOF 0
REMARK  Name = ../refined-set-2016/1bai/1bai_pocket.pdb
REMARK  228 active torsions:
REMARK  status: ('A' for Active; 'I' for Inactive)
REMARK    1  A    between atoms: _1  and  _3
REMARK    2  A    between atoms: _3  and  _4
REMARK    3  A    between atoms: _3  and  _6
REMARK    4  A    between atoms: _6  and  _7
REMARK    5  A    between atoms: _7  and  _8
REMARK    6  A    between atoms: _8  and  _9
REMARK    7  A    between atoms: _18  and  _20
REMARK    8  A    between atoms: _20  and  _21
REMARK    9  A    between atoms: _20  and  _23
REMARK   10  A    between atoms: _23  and  _24
REMARK   11  A    between atoms: _27  and  _29
REMARK   12  A    between atoms: _29  and  _30
REMARK   13  A    between atoms: _29  and  _32
REMARK   14  A    between atoms: _32  and  _33
REMARK   15  A    between atoms: _36  and  _38
REMARK   16  A    between atoms: _38  and  _39
REMARK   17  A    between atoms: _38  and  _41
REMARK   18  A    between atoms: _41  and  _42
REMARK   19  A    between atoms: _45  and  _47
REMARK   20  A    between atoms: _47  and  _48
REMARK   21  A    between atoms: _47  and  _50
REMARK   22  A    between atoms: _50  and  _51
REMARK   23  A    between atoms: _54  and  _56
REMARK   24  A    between atoms: _56  and  _57
REMARK   25  A    between atoms: _56  and  _59
REMARK   26  A    between atoms: _59  and  _60
REMARK   27  A    between atoms: _63  and  _65
REMARK   28  A    between atoms: _65  and  _66
REMARK   29  A    between atoms: _68  and  _70
REMARK   30  A    between atoms: _70  and  _71
REMARK   31  A    between atoms: _74  and  _76
REMARK   32  A    between atoms: _76  and  _77
REMARK   33  A    between atoms: _76  and  _79
REMARK   34  A    between atoms: _79  and  _80
REMARK   35  A    between atoms: _83  and  _85
REMARK   36  A    between atoms: _85  and  _86
REMARK   37  A    between atoms: _85  and  _88
REMARK   38  A    between atoms: _88  and  _89
REMARK   39  A    between atoms: _92  and  _94
REMARK   40  A    between atoms: _94  and  _95
REMARK   41  A    between atoms: _94  and  _97
REMARK   42  A    between atoms: _97  and  _98
REMARK   43  A    between atoms: _101  and  _103
REMARK   44  A    between atoms: _103  and  _104
REMARK   45  A    between atoms: _103  and  _106
REMARK   46  A    between atoms: _109  and  _111
REMARK   47  A    between atoms: _111  and  _112
REMARK   48  A    between atoms: _115  and  _117
REMARK   49  A    between atoms: _117  and  _118
REMARK   50  A    between atoms: _121  and  _123
REMARK   51  A    between atoms: _123  and  _124
REMARK   52  A    between atoms: _123  and  _126
REMARK   53  A    between atoms: _126  and  _127
REMARK   54  A    between atoms: _133  and  _134
REMARK   55  A    between atoms: _139  and  _141
REMARK   56  A    between atoms: _141  and  _142
REMARK   57  A    between atoms: _141  and  _144
REMARK   58  A    between atoms: _144  and  _145
REMARK   59  A    between atoms: _145  and  _146
REMARK   60  A    between atoms: _151  and  _153
REMARK   61  A    between atoms: _153  and  _154
REMARK   62  A    between atoms: _153  and  _156
REMARK   63  A    between atoms: _156  and  _157
REMARK   64  A    between atoms: _160  and  _162
REMARK   65  A    between atoms: _162  and  _163
REMARK   66  A    between atoms: _162  and  _165
REMARK   67  A    between atoms: _165  and  _166
REMARK   68  A    between atoms: _171  and  _173
REMARK   69  A    between atoms: _173  and  _174
REMARK   70  A    between atoms: _176  and  _178
REMARK   71  A    between atoms: _178  and  _179
REMARK   72  A    between atoms: _178  and  _181
REMARK   73  A    between atoms: _181  and  _182
REMARK   74  A    between atoms: _185  and  _187
REMARK   75  A    between atoms: _187  and  _188
REMARK   76  A    between atoms: _190  and  _192
REMARK   77  A    between atoms: _192  and  _193
REMARK   78  A    between atoms: _195  and  _197
REMARK   79  A    between atoms: _197  and  _198
REMARK   80  A    between atoms: _200  and  _202
REMARK   81  A    between atoms: _202  and  _203
REMARK   82  A    between atoms: _202  and  _205
REMARK   83  A    between atoms: _205  and  _206
REMARK   84  A    between atoms: _209  and  _211
REMARK   85  A    between atoms: _211  and  _212
REMARK   86  A    between atoms: _211  and  _214
REMARK   87  A    between atoms: _217  and  _219
REMARK   88  A    between atoms: _219  and  _220
REMARK   89  A    between atoms: _219  and  _222
REMARK   90  A    between atoms: _222  and  _223
REMARK   91  A    between atoms: _226  and  _228
REMARK   92  A    between atoms: _228  and  _229
REMARK   93  A    between atoms: _232  and  _234
REMARK   94  A    between atoms: _234  and  _235
REMARK   95  A    between atoms: _234  and  _237
REMARK   96  A    between atoms: _237  and  _238
REMARK   97  A    between atoms: _242  and  _243
REMARK   98  A    between atoms: _248  and  _250
REMARK   99  A    between atoms: _250  and  _251
REMARK  100  A    between atoms: _250  and  _253
REMARK  101  A    between atoms: _256  and  _258
REMARK  102  A    between atoms: _258  and  _259
REMARK  103  A    between atoms: _258  and  _261
REMARK  104  A    between atoms: _261  and  _262
REMARK  105  A    between atoms: _267  and  _269
REMARK  106  A    between atoms: _269  and  _270
REMARK  107  A    between atoms: _269  and  _272
REMARK  108  A    between atoms: _272  and  _273
REMARK  109  A    between atoms: _276  and  _278
REMARK  110  A    between atoms: _278  and  _279
REMARK  111  A    between atoms: _278  and  _281
REMARK  112  A    between atoms: _281  and  _282
REMARK  113  A    between atoms: _285  and  _287
REMARK  114  A    between atoms: _287  and  _288
REMARK  115  A    between atoms: _290  and  _292
REMARK  116  A    between atoms: _292  and  _293
REMARK  117  A    between atoms: _292  and  _295
REMARK  118  A    between atoms: _295  and  _296
REMARK  119  A    between atoms: _296  and  _297
REMARK  120  A    between atoms: _297  and  _298
REMARK  121  A    between atoms: _307  and  _309
REMARK  122  A    between atoms: _309  and  _310
REMARK  123  A    between atoms: _309  and  _312
REMARK  124  A    between atoms: _312  and  _313
REMARK  125  A    between atoms: _316  and  _318
REMARK  126  A    between atoms: _318  and  _319
REMARK  127  A    between atoms: _318  and  _321
REMARK  128  A    between atoms: _321  and  _322
REMARK  129  A    between atoms: _327  and  _329
REMARK  130  A    between atoms: _329  and  _330
REMARK  131  A    between atoms: _329  and  _332
REMARK  132  A    between atoms: _332  and  _333
REMARK  133  A    between atoms: _333  and  _334
REMARK  134  A    between atoms: _334  and  _335
REMARK  135  A    between atoms: _344  and  _346
REMARK  136  A    between atoms: _346  and  _347
REMARK  137  A    between atoms: _346  and  _349
REMARK  138  A    between atoms: _349  and  _350
REMARK  139  A    between atoms: _353  and  _355
REMARK  140  A    between atoms: _355  and  _356
REMARK  141  A    between atoms: _355  and  _358
REMARK  142  A    between atoms: _358  and  _359
REMARK  143  A    between atoms: _362  and  _364
REMARK  144  A    between atoms: _364  and  _365
REMARK  145  A    between atoms: _364  and  _367
REMARK  146  A    between atoms: _367  and  _368
REMARK  147  A    between atoms: _371  and  _373
REMARK  148  A    between atoms: _373  and  _374
REMARK  149  A    between atoms: _373  and  _376
REMARK  150  A    between atoms: _376  and  _377
REMARK  151  A    between atoms: _380  and  _382
REMARK  152  A    between atoms: _382  and  _383
REMARK  153  A    between atoms: _382  and  _385
REMARK  154  A    between atoms: _385  and  _386
REMARK  155  A    between atoms: _389  and  _391
REMARK  156  A    between atoms: _391  and  _392
REMARK  157  A    between atoms: _394  and  _396
REMARK  158  A    between atoms: _396  and  _397
REMARK  159  A    between atoms: _400  and  _402
REMARK  160  A    between atoms: _402  and  _403
REMARK  161  A    between atoms: _402  and  _405
REMARK  162  A    between atoms: _405  and  _406
REMARK  163  A    between atoms: _409  and  _411
REMARK  164  A    between atoms: _411  and  _412
REMARK  165  A    between atoms: _411  and  _414
REMARK  166  A    between atoms: _414  and  _415
REMARK  167  A    between atoms: _418  and  _420
REMARK  168  A    between atoms: _420  and  _421
REMARK  169  A    between atoms: _420  and  _423
REMARK  170  A    between atoms: _423  and  _424
REMARK  171  A    between atoms: _427  and  _429
REMARK  172  A    between atoms: _429  and  _430
REMARK  173  A    between atoms: _429  and  _432
REMARK  174  A    between atoms: _435  and  _437
REMARK  175  A    between atoms: _437  and  _438
REMARK  176  A    between atoms: _437  and  _440
REMARK  177  A    between atoms: _440  and  _441
REMARK  178  A    between atoms: _441  and  _442
REMARK  179  A    between atoms: _447  and  _449
REMARK  180  A    between atoms: _449  and  _450
REMARK  181  A    between atoms: _449  and  _452
REMARK  182  A    between atoms: _452  and  _453
REMARK  183  A    between atoms: _456  and  _458
REMARK  184  A    between atoms: _458  and  _459
REMARK  185  A    between atoms: _458  and  _461
REMARK  186  A    between atoms: _461  and  _462
REMARK  187  A    between atoms: _467  and  _469
REMARK  188  A    between atoms: _469  and  _470
REMARK  189  A    between atoms: _472  and  _474
REMARK  190  A    between atoms: _474  and  _475
REMARK  191  A    between atoms: _474  and  _477
REMARK  192  A    between atoms: _477  and  _478
REMARK  193  A    between atoms: _481  and  _483
REMARK  194  A    between atoms: _483  and  _484
REMARK  195  A    between atoms: _486  and  _488
REMARK  196  A    between atoms: _488  and  _489
REMARK  197  A    between atoms: _491  and  _493
REMARK  198  A    between atoms: _493  and  _494
REMARK  199  A    between atoms: _493  and  _496
REMARK  200  A    between atoms: _496  and  _497
REMARK  201  A    between atoms: _500  and  _502
REMARK  202  A    between atoms: _502  and  _503
REMARK  203  A    between atoms: _502  and  _505
REMARK  204  A    between atoms: _505  and  _506
REMARK  205  A    between atoms: _510  and  _511
REMARK  206  A    between atoms: _516  and  _518
REMARK  207  A    between atoms: _518  and  _519
REMARK  208  A    between atoms: _518  and  _521
REMARK  209  A    between atoms: _524  and  _526
REMARK  210  A    between atoms: _526  and  _527
REMARK  211  A    between atoms: _526  and  _529
REMARK  212  A    between atoms: _529  and  _530
REMARK  213  A    between atoms: _535  and  _537
REMARK  214  A    between atoms: _537  and  _538
REMARK  215  A    between atoms: _537  and  _540
REMARK  216  A    between atoms: _540  and  _541
REMARK  217  A    between atoms: _544  and  _546
REMARK  218  A    between atoms: _546  and  _547
REMARK  219  A    between atoms: _546  and  _549
REMARK  220  A    between atoms: _549  and  _550
REMARK  221  A    between atoms: _553  and  _555
REMARK  222  A    between atoms: _555  and  _556
REMARK  223  A    between atoms: _558  and  _560
REMARK  224  A    between atoms: _560  and  _561
REMARK  225  A    between atoms: _560  and  _563
REMARK  226  A    between atoms: _563  and  _564
REMARK  227  A    between atoms: _564  and  _565
REMARK  228  A    between atoms: _565  and  _566
REMARK                            x       y       z     vdW  Elec       q    Type
REMARK                         _______ _______ _______ _____ _____    ______ ____
ROOT
ATOM      1  O   HOH     1      10.032  17.072  43.243  0.00  0.00    +0.000 OA
ENDROOT
TORSDOF 0
REMARK  Name = ../refined-set-2016/1bai/1bai_pocket.pdb
REMARK  228 active torsions:
REMARK  status: ('A' for Active; 'I' for Inactive)
REMARK    1  A    between atoms: _1  and  _3
REMARK    2  A    between atoms: _3  and  _4
REMARK    3  A    between atoms: _3  and  _6
REMARK    4  A    between atoms: _6  and  _7
REMARK    5  A    between atoms: _7  and  _8
REMARK    6  A    between atoms: _8  and  _9
REMARK    7  A    between atoms: _18  and  _20
REMARK    8  A    between atoms: _20  and  _21
REMARK    9  A    between atoms: _20  and  _23
REMARK   10  A    between atoms: _23  and  _24
REMARK   11  A    between atoms: _27  and  _29
REMARK   12  A    between atoms: _29  and  _30
REMARK   13  A    between atoms: _29  and  _32
REMARK   14  A    between atoms: _32  and  _33
REMARK   15  A    between atoms: _36  and  _38
REMARK   16  A    between atoms: _38  and  _39
REMARK   17  A    between atoms: _38  and  _41
REMARK   18  A    between atoms: _41  and  _42
REMARK   19  A    between atoms: _45  and  _47
REMARK   20  A    between atoms: _47  and  _48
REMARK   21  A    between atoms: _47  and  _50
REMARK   22  A    between atoms: _50  and  _51
REMARK   23  A    between atoms: _54  and  _56
REMARK   24  A    between atoms: _56  and  _57
REMARK   25  A    between atoms: _56  and  _59
REMARK   26  A    between atoms: _59  and  _60
REMARK   27  A    between atoms: _63  and  _65
REMARK   28  A    between atoms: _65  and  _66
REMARK   29  A    between atoms: _68  and  _70
REMARK   30  A    between atoms: _70  and  _71
REMARK   31  A    between atoms: _74  and  _76
REMARK   32  A    between atoms: _76  and  _77
REMARK   33  A    between atoms: _76  and  _79
REMARK   34  A    between atoms: _79  and  _80
REMARK   35  A    between atoms: _83  and  _85
REMARK   36  A    between atoms: _85  and  _86
REMARK   37  A    between atoms: _85  and  _88
REMARK   38  A    between atoms: _88  and  _89
REMARK   39  A    between atoms: _92  and  _94
REMARK   40  A    between atoms: _94  and  _95
REMARK   41  A    between atoms: _94  and  _97
REMARK   42  A    between atoms: _97  and  _98
REMARK   43  A    between atoms: _101  and  _103
REMARK   44  A    between atoms: _103  and  _104
REMARK   45  A    between atoms: _103  and  _106
REMARK   46  A    between atoms: _109  and  _111
REMARK   47  A    between atoms: _111  and  _112
REMARK   48  A    between atoms: _115  and  _117
REMARK   49  A    between atoms: _117  and  _118
REMARK   50  A    between atoms: _121  and  _123
REMARK   51  A    between atoms: _123  and  _124
REMARK   52  A    between atoms: _123  and  _126
REMARK   53  A    between atoms: _126  and  _127
REMARK   54  A    between atoms: _133  and  _134
REMARK   55  A    between atoms: _139  and  _141
REMARK   56  A    between atoms: _141  and  _142
REMARK   57  A    between atoms: _141  and  _144
REMARK   58  A    between atoms: _144  and  _145
REMARK   59  A    between atoms: _145  and  _146
REMARK   60  A    between atoms: _151  and  _153
REMARK   61  A    between atoms: _153  and  _154
REMARK   62  A    between atoms: _153  and  _156
REMARK   63  A    between atoms: _156  and  _157
REMARK   64  A    between atoms: _160  and  _162
REMARK   65  A    between atoms: _162  and  _163
REMARK   66  A    between atoms: _162  and  _165
REMARK   67  A    between atoms: _165  and  _166
REMARK   68  A    between atoms: _171  and  _173
REMARK   69  A    between atoms: _173  and  _174
REMARK   70  A    between atoms: _176  and  _178
REMARK   71  A    between atoms: _178  and  _179
REMARK   72  A    between atoms: _178  and  _181
REMARK   73  A    between atoms: _181  and  _182
REMARK   74  A    between atoms: _185  and  _187
REMARK   75  A    between atoms: _187  and  _188
REMARK   76  A    between atoms: _190  and  _192
REMARK   77  A    between atoms: _192  and  _193
REMARK   78  A    between atoms: _195  and  _197
REMARK   79  A    between atoms: _197  and  _198
REMARK   80  A    between atoms: _200  and  _202
REMARK   81  A    between atoms: _202  and  _203
REMARK   82  A    between atoms: _202  and  _205
REMARK   83  A    between atoms: _205  and  _206
REMARK   84  A    between atoms: _209  and  _211
REMARK   85  A    between atoms: _211  and  _212
REMARK   86  A    between atoms: _211  and  _214
REMARK   87  A    between atoms: _217  and  _219
REMARK   88  A    between atoms: _219  and  _220
REMARK   89  A    between atoms: _219  and  _222
REMARK   90  A    between atoms: _222  and  _223
REMARK   91  A    between atoms: _226  and  _228
REMARK   92  A    between atoms: _228  and  _229
REMARK   93  A    between atoms: _232  and  _234
REMARK   94  A    between atoms: _234  and  _235
REMARK   95  A    between atoms: _234  and  _237
REMARK   96  A    between atoms: _237  and  _238
REMARK   97  A    between atoms: _242  and  _243
REMARK   98  A    between atoms: _248  and  _250
REMARK   99  A    between atoms: _250  and  _251
REMARK  100  A    between atoms: _250  and  _253
REMARK  101  A    between atoms: _256  and  _258
REMARK  102  A    between atoms: _258  and  _259
REMARK  103  A    between atoms: _258  and  _261
REMARK  104  A    between atoms: _261  and  _262
REMARK  105  A    between atoms: _267  and  _269
REMARK  106  A    between atoms: _269  and  _270
REMARK  107  A    between atoms: _269  and  _272
REMARK  108  A    between atoms: _272  and  _273
REMARK  109  A    between atoms: _276  and  _278
REMARK  110  A    between atoms: _278  and  _279
REMARK  111  A    between atoms: _278  and  _281
REMARK  112  A    between atoms: _281  and  _282
REMARK  113  A    between atoms: _285  and  _287
REMARK  114  A    between atoms: _287  and  _288
REMARK  115  A    between atoms: _290  and  _292
REMARK  116  A    between atoms: _292  and  _293
REMARK  117  A    between atoms: _292  and  _295
REMARK  118  A    between atoms: _295  and  _296
REMARK  119  A    between atoms: _296  and  _297
REMARK  120  A    between atoms: _297  and  _298
REMARK  121  A    between atoms: _307  and  _309
REMARK  122  A    between atoms: _309  and  _310
REMARK  123  A    between atoms: _309  and  _312
REMARK  124  A    between atoms: _312  and  _313
REMARK  125  A    between atoms: _316  and  _318
REMARK  126  A    between atoms: _318  and  _319
REMARK  127  A    between atoms: _318  and  _321
REMARK  128  A    between atoms: _321  and  _322
REMARK  129  A    between atoms: _327  and  _329
REMARK  130  A    between atoms: _329  and  _330
REMARK  131  A    between atoms: _329  and  _332
REMARK  132  A    between atoms: _332  and  _333
REMARK  133  A    between atoms: _333  and  _334
REMARK  134  A    between atoms: _334  and  _335
REMARK  135  A    between atoms: _344  and  _346
REMARK  136  A    between atoms: _346  and  _347
REMARK  137  A    between atoms: _346  and  _349
REMARK  138  A    between atoms: _349  and  _350
REMARK  139  A    between atoms: _353  and  _355
REMARK  140  A    between atoms: _355  and  _356
REMARK  141  A    between atoms: _355  and  _358
REMARK  142  A    between atoms: _358  and  _359
REMARK  143  A    between atoms: _362  and  _364
REMARK  144  A    between atoms: _364  and  _365
REMARK  145  A    between atoms: _364  and  _367
REMARK  146  A    between atoms: _367  and  _368
REMARK  147  A    between atoms: _371  and  _373
REMARK  148  A    between atoms: _373  and  _374
REMARK  149  A    between atoms: _373  and  _376
REMARK  150  A    between atoms: _376  and  _377
REMARK  151  A    between atoms: _380  and  _382
REMARK  152  A    between atoms: _382  and  _383
REMARK  153  A    between atoms: _382  and  _385
REMARK  154  A    between atoms: _385  and  _386
REMARK  155  A    between atoms: _389  and  _391
REMARK  156  A    between atoms: _391  and  _392
REMARK  157  A    between atoms: _394  and  _396
REMARK  158  A    between atoms: _396  and  _397
REMARK  159  A    between atoms: _400  and  _402
REMARK  160  A    between atoms: _402  and  _403
REMARK  161  A    between atoms: _402  and  _405
REMARK  162  A    between atoms: _405  and  _406
REMARK  163  A    between atoms: _409  and  _411
REMARK  164  A    between atoms: _411  and  _412
REMARK  165  A    between atoms: _411  and  _414
REMARK  166  A    between atoms: _414  and  _415
REMARK  167  A    between atoms: _418  and  _420
REMARK  168  A    between atoms: _420  and  _421
REMARK  169  A    between atoms: _420  and  _423
REMARK  170  A    between atoms: _423  and  _424
REMARK  171  A    between atoms: _427  and  _429
REMARK  172  A    between atoms: _429  and  _430
REMARK  173  A    between atoms: _429  and  _432
REMARK  174  A    between atoms: _435  and  _437
REMARK  175  A    between atoms: _437  and  _438
REMARK  176  A    between atoms: _437  and  _440
REMARK  177  A    between atoms: _440  and  _441
REMARK  178  A    between atoms: _441  and  _442
REMARK  179  A    between atoms: _447  and  _449
REMARK  180  A    between atoms: _449  and  _450
REMARK  181  A    between atoms: _449  and  _452
REMARK  182  A    between atoms: _452  and  _453
REMARK  183  A    between atoms: _456  and  _458
REMARK  184  A    between atoms: _458  and  _459
REMARK  185  A    between atoms: _458  and  _461
REMARK  186  A    between atoms: _461  and  _462
REMARK  187  A    between atoms: _467  and  _469
REMARK  188  A    between atoms: _469  and  _470
REMARK  189  A    between atoms: _472  and  _474
REMARK  190  A    between atoms: _474  and  _475
REMARK  191  A    between atoms: _474  and  _477
REMARK  192  A    between atoms: _477  and  _478
REMARK  193  A    between atoms: _481  and  _483
REMARK  194  A    between atoms: _483  and  _484
REMARK  195  A    between atoms: _486  and  _488
REMARK  196  A    between atoms: _488  and  _489
REMARK  197  A    between atoms: _491  and  _493
REMARK  198  A    between atoms: _493  and  _494
REMARK  199  A    between atoms: _493  and  _496
REMARK  200  A    between atoms: _496  and  _497
REMARK  201  A    between atoms: _500  and  _502
REMARK  202  A    between atoms: _502  and  _503
REMARK  203  A    between atoms: _502  and  _505
REMARK  204  A    between atoms: _505  and  _506
REMARK  205  A    between atoms: _510  and  _511
REMARK  206  A    between atoms: _516  and  _518
REMARK  207  A    between atoms: _518  and  _519
REMARK  208  A    between atoms: _518  and  _521
REMARK  209  A    between atoms: _524  and  _526
REMARK  210  A    between atoms: _526  and  _527
REMARK  211  A    between atoms: _526  and  _529
REMARK  212  A    between atoms: _529  and  _530
REMARK  213  A    between atoms: _535  and  _537
REMARK  214  A    between atoms: _537  and  _538
REMARK  215  A    between atoms: _537  and  _540
REMARK  216  A    between atoms: _540  and  _541
REMARK  217  A    between atoms: _544  and  _546
REMARK  218  A    between atoms: _546  and  _547
REMARK  219  A    between atoms: _546  and  _549
REMARK  220  A    between atoms: _549  and  _550
REMARK  221  A    between atoms: _553  and  _555
REMARK  222  A    between atoms: _555  and  _556
REMARK  223  A    between atoms: _558  and  _560
REMARK  224  A    between atoms: _560  and  _561
REMARK  225  A    between atoms: _560  and  _563
REMARK  226  A    between atoms: _563  and  _564
REMARK  227  A    between atoms: _564  and  _565
REMARK  228  A    between atoms: _565  and  _566
REMARK                            x       y       z     vdW  Elec       q    Type
REMARK                         _______ _______ _______ _____ _____    ______ ____
ROOT
ATOM      1  O   HOH     1      -9.306  19.070  27.895  0.00  0.00    +0.000 OA
ENDROOT
TORSDOF 0
REMARK  Name = ../refined-set-2016/1bai/1bai_pocket.pdb
REMARK  228 active torsions:
REMARK  status: ('A' for Active; 'I' for Inactive)
REMARK    1  A    between atoms: _1  and  _3
REMARK    2  A    between atoms: _3  and  _4
REMARK    3  A    between atoms: _3  and  _6
REMARK    4  A    between atoms: _6  and  _7
REMARK    5  A    between atoms: _7  and  _8
REMARK    6  A    between atoms: _8  and  _9
REMARK    7  A    between atoms: _18  and  _20
REMARK    8  A    between atoms: _20  and  _21
REMARK    9  A    between atoms: _20  and  _23
REMARK   10  A    between atoms: _23  and  _24
REMARK   11  A    between atoms: _27  and  _29
REMARK   12  A    between atoms: _29  and  _30
REMARK   13  A    between atoms: _29  and  _32
REMARK   14  A    between atoms: _32  and  _33
REMARK   15  A    between atoms: _36  and  _38
REMARK   16  A    between atoms: _38  and  _39
REMARK   17  A    between atoms: _38  and  _41
REMARK   18  A    between atoms: _41  and  _42
REMARK   19  A    between atoms: _45  and  _47
REMARK   20  A    between atoms: _47  and  _48
REMARK   21  A    between atoms: _47  and  _50
REMARK   22  A    between atoms: _50  and  _51
REMARK   23  A    between atoms: _54  and  _56
REMARK   24  A    between atoms: _56  and  _57
REMARK   25  A    between atoms: _56  and  _59
REMARK   26  A    between atoms: _59  and  _60
REMARK   27  A    between atoms: _63  and  _65
REMARK   28  A    between atoms: _65  and  _66
REMARK   29  A    between atoms: _68  and  _70
REMARK   30  A    between atoms: _70  and  _71
REMARK   31  A    between atoms: _74  and  _76
REMARK   32  A    between atoms: _76  and  _77
REMARK   33  A    between atoms: _76  and  _79
REMARK   34  A    between atoms: _79  and  _80
REMARK   35  A    between atoms: _83  and  _85
REMARK   36  A    between atoms: _85  and  _86
REMARK   37  A    between atoms: _85  and  _88
REMARK   38  A    between atoms: _88  and  _89
REMARK   39  A    between atoms: _92  and  _94
REMARK   40  A    between atoms: _94  and  _95
REMARK   41  A    between atoms: _94  and  _97
REMARK   42  A    between atoms: _97  and  _98
REMARK   43  A    between atoms: _101  and  _103
REMARK   44  A    between atoms: _103  and  _104
REMARK   45  A    between atoms: _103  and  _106
REMARK   46  A    between atoms: _109  and  _111
REMARK   47  A    between atoms: _111  and  _112
REMARK   48  A    between atoms: _115  and  _117
REMARK   49  A    between atoms: _117  and  _118
REMARK   50  A    between atoms: _121  and  _123
REMARK   51  A    between atoms: _123  and  _124
REMARK   52  A    between atoms: _123  and  _126
REMARK   53  A    between atoms: _126  and  _127
REMARK   54  A    between atoms: _133  and  _134
REMARK   55  A    between atoms: _139  and  _141
REMARK   56  A    between atoms: _141  and  _142
REMARK   57  A    between atoms: _141  and  _144
REMARK   58  A    between atoms: _144  and  _145
REMARK   59  A    between atoms: _145  and  _146
REMARK   60  A    between atoms: _151  and  _153
REMARK   61  A    between atoms: _153  and  _154
REMARK   62  A    between atoms: _153  and  _156
REMARK   63  A    between atoms: _156  and  _157
REMARK   64  A    between atoms: _160  and  _162
REMARK   65  A    between atoms: _162  and  _163
REMARK   66  A    between atoms: _162  and  _165
REMARK   67  A    between atoms: _165  and  _166
REMARK   68  A    between atoms: _171  and  _173
REMARK   69  A    between atoms: _173  and  _174
REMARK   70  A    between atoms: _176  and  _178
REMARK   71  A    between atoms: _178  and  _179
REMARK   72  A    between atoms: _178  and  _181
REMARK   73  A    between atoms: _181  and  _182
REMARK   74  A    between atoms: _185  and  _187
REMARK   75  A    between atoms: _187  and  _188
REMARK   76  A    between atoms: _190  and  _192
REMARK   77  A    between atoms: _192  and  _193
REMARK   78  A    between atoms: _195  and  _197
REMARK   79  A    between atoms: _197  and  _198
REMARK   80  A    between atoms: _200  and  _202
REMARK   81  A    between atoms: _202  and  _203
REMARK   82  A    between atoms: _202  and  _205
REMARK   83  A    between atoms: _205  and  _206
REMARK   84  A    between atoms: _209  and  _211
REMARK   85  A    between atoms: _211  and  _212
REMARK   86  A    between atoms: _211  and  _214
REMARK   87  A    between atoms: _217  and  _219
REMARK   88  A    between atoms: _219  and  _220
REMARK   89  A    between atoms: _219  and  _222
REMARK   90  A    between atoms: _222  and  _223
REMARK   91  A    between atoms: _226  and  _228
REMARK   92  A    between atoms: _228  and  _229
REMARK   93  A    between atoms: _232  and  _234
REMARK   94  A    between atoms: _234  and  _235
REMARK   95  A    between atoms: _234  and  _237
REMARK   96  A    between atoms: _237  and  _238
REMARK   97  A    between atoms: _242  and  _243
REMARK   98  A    between atoms: _248  and  _250
REMARK   99  A    between atoms: _250  and  _251
REMARK  100  A    between atoms: _250  and  _253
REMARK  101  A    between atoms: _256  and  _258
REMARK  102  A    between atoms: _258  and  _259
REMARK  103  A    between atoms: _258  and  _261
REMARK  104  A    between atoms: _261  and  _262
REMARK  105  A    between atoms: _267  and  _269
REMARK  106  A    between atoms: _269  and  _270
REMARK  107  A    between atoms: _269  and  _272
REMARK  108  A    between atoms: _272  and  _273
REMARK  109  A    between atoms: _276  and  _278
REMARK  110  A    between atoms: _278  and  _279
REMARK  111  A    between atoms: _278  and  _281
REMARK  112  A    between atoms: _281  and  _282
REMARK  113  A    between atoms: _285  and  _287
REMARK  114  A    between atoms: _287  and  _288
REMARK  115  A    between atoms: _290  and  _292
REMARK  116  A    between atoms: _292  and  _293
REMARK  117  A    between atoms: _292  and  _295
REMARK  118  A    between atoms: _295  and  _296
REMARK  119  A    between atoms: _296  and  _297
REMARK  120  A    between atoms: _297  and  _298
REMARK  121  A    between atoms: _307  and  _309
REMARK  122  A    between atoms: _309  and  _310
REMARK  123  A    between atoms: _309  and  _312
REMARK  124  A    between atoms: _312  and  _313
REMARK  125  A    between atoms: _316  and  _318
REMARK  126  A    between atoms: _318  and  _319
REMARK  127  A    between atoms: _318  and  _321
REMARK  128  A    between atoms: _321  and  _322
REMARK  129  A    between atoms: _327  and  _329
REMARK  130  A    between atoms: _329  and  _330
REMARK  131  A    between atoms: _329  and  _332
REMARK  132  A    between atoms: _332  and  _333
REMARK  133  A    between atoms: _333  and  _334
REMARK  134  A    between atoms: _334  and  _335
REMARK  135  A    between atoms: _344  and  _346
REMARK  136  A    between atoms: _346  and  _347
REMARK  137  A    between atoms: _346  and  _349
REMARK  138  A    between atoms: _349  and  _350
REMARK  139  A    between atoms: _353  and  _355
REMARK  140  A    between atoms: _355  and  _356
REMARK  141  A    between atoms: _355  and  _358
REMARK  142  A    between atoms: _358  and  _359
REMARK  143  A    between atoms: _362  and  _364
REMARK  144  A    between atoms: _364  and  _365
REMARK  145  A    between atoms: _364  and  _367
REMARK  146  A    between atoms: _367  and  _368
REMARK  147  A    between atoms: _371  and  _373
REMARK  148  A    between atoms: _373  and  _374
REMARK  149  A    between atoms: _373  and  _376
REMARK  150  A    between atoms: _376  and  _377
REMARK  151  A    between atoms: _380  and  _382
REMARK  152  A    between atoms: _382  and  _383
REMARK  153  A    between atoms: _382  and  _385
REMARK  154  A    between atoms: _385  and  _386
REMARK  155  A    between atoms: _389  and  _391
REMARK  156  A    between atoms: _391  and  _392
REMARK  157  A    between atoms: _394  and  _396
REMARK  158  A    between atoms: _396  and  _397
REMARK  159  A    between atoms: _400  and  _402
REMARK  160  A    between atoms: _402  and  _403
REMARK  161  A    between atoms: _402  and  _405
REMARK  162  A    between atoms: _405  and  _406
REMARK  163  A    between atoms: _409  and  _411
REMARK  164  A    between atoms: _411  and  _412
REMARK  165  A    between atoms: _411  and  _414
REMARK  166  A    between atoms: _414  and  _415
REMARK  167  A    between atoms: _418  and  _420
REMARK  168  A    between atoms: _420  and  _421
REMARK  169  A    between atoms: _420  and  _423
REMARK  170  A    between atoms: _423  and  _424
REMARK  171  A    between atoms: _427  and  _429
REMARK  172  A    between atoms: _429  and  _430
REMARK  173  A    between atoms: _429  and  _432
REMARK  174  A    between atoms: _435  and  _437
REMARK  175  A    between atoms: _437  and  _438
REMARK  176  A    between atoms: _437  and  _440
REMARK  177  A    between atoms: _440  and  _441
REMARK  178  A    between atoms: _441  and  _442
REMARK  179  A    between atoms: _447  and  _449
REMARK  180  A    between atoms: _449  and  _450
REMARK  181  A    between atoms: _449  and  _452
REMARK  182  A    between atoms: _452  and  _453
REMARK  183  A    between atoms: _456  and  _458
REMARK  184  A    between atoms: _458  and  _459
REMARK  185  A    between atoms: _458  and  _461
REMARK  186  A    between atoms: _461  and  _462
REMARK  187  A    between atoms: _467  and  _469
REMARK  188  A    between atoms: _469  and  _470
REMARK  189  A    between atoms: _472  and  _474
REMARK  190  A    between atoms: _474  and  _475
REMARK  191  A    between atoms: _474  and  _477
REMARK  192  A    between atoms: _477  and  _478
REMARK  193  A    between atoms: _481  and  _483
REMARK  194  A    between atoms: _483  and  _484
REMARK  195  A    between atoms: _486  and  _488
REMARK  196  A    between atoms: _488  and  _489
REMARK  197  A    between atoms: _491  and  _493
REMARK  198  A    between atoms: _493  and  _494
REMARK  199  A    between atoms: _493  and  _496
REMARK  200  A    between atoms: _496  and  _497
REMARK  201  A    between atoms: _500  and  _502
REMARK  202  A    between atoms: _502  and  _503
REMARK  203  A    between atoms: _502  and  _505
REMARK  204  A    between atoms: _505  and  _506
REMARK  205  A    between atoms: _510  and  _511
REMARK  206  A    between atoms: _516  and  _518
REMARK  207  A    between atoms: _518  and  _519
REMARK  208  A    between atoms: _518  and  _521
REMARK  209  A    between atoms: _524  and  _526
REMARK  210  A    between atoms: _526  and  _527
REMARK  211  A    between atoms: _526  and  _529
REMARK  212  A    between atoms: _529  and  _530
REMARK  213  A    between atoms: _535  and  _537
REMARK  214  A    between atoms: _537  and  _538
REMARK  215  A    between atoms: _537  and  _540
REMARK  216  A    between atoms: _540  and  _541
REMARK  217  A    between atoms: _544  and  _546
REMARK  218  A    between atoms: _546  and  _547
REMARK  219  A    between atoms: _546  and  _549
REMARK  220  A    between atoms: _549  and  _550
REMARK  221  A    between atoms: _553  and  _555
REMARK  222  A    between atoms: _555  and  _556
REMARK  223  A    between atoms: _558  and  _560
REMARK  224  A    between atoms: _560  and  _561
REMARK  225  A    between atoms: _560  and  _563
REMARK  226  A    between atoms: _563  and  _564
REMARK  227  A    between atoms: _564  and  _565
REMARK  228  A    between atoms: _565  and  _566
REMARK                            x       y       z     vdW  Elec       q    Type
REMARK                         _______ _______ _______ _____ _____    ______ ____
ROOT
ATOM      1  O   HOH     1      12.171  21.123  37.554  0.00  0.00    +0.000 OA
ENDROOT
TORSDOF 0
REMARK  Name = ../refined-set-2016/1bai/1bai_pocket.pdb
REMARK  228 active torsions:
REMARK  status: ('A' for Active; 'I' for Inactive)
REMARK    1  A    between atoms: _1  and  _3
REMARK    2  A    between atoms: _3  and  _4
REMARK    3  A    between atoms: _3  and  _6
REMARK    4  A    between atoms: _6  and  _7
REMARK    5  A    between atoms: _7  and  _8
REMARK    6  A    between atoms: _8  and  _9
REMARK    7  A    between atoms: _18  and  _20
REMARK    8  A    between atoms: _20  and  _21
REMARK    9  A    between atoms: _20  and  _23
REMARK   10  A    between atoms: _23  and  _24
REMARK   11  A    between atoms: _27  and  _29
REMARK   12  A    between atoms: _29  and  _30
REMARK   13  A    between atoms: _29  and  _32
REMARK   14  A    between atoms: _32  and  _33
REMARK   15  A    between atoms: _36  and  _38
REMARK   16  A    between atoms: _38  and  _39
REMARK   17  A    between atoms: _38  and  _41
REMARK   18  A    between atoms: _41  and  _42
REMARK   19  A    between atoms: _45  and  _47
REMARK   20  A    between atoms: _47  and  _48
REMARK   21  A    between atoms: _47  and  _50
REMARK   22  A    between atoms: _50  and  _51
REMARK   23  A    between atoms: _54  and  _56
REMARK   24  A    between atoms: _56  and  _57
REMARK   25  A    between atoms: _56  and  _59
REMARK   26  A    between atoms: _59  and  _60
REMARK   27  A    between atoms: _63  and  _65
REMARK   28  A    between atoms: _65  and  _66
REMARK   29  A    between atoms: _68  and  _70
REMARK   30  A    between atoms: _70  and  _71
REMARK   31  A    between atoms: _74  and  _76
REMARK   32  A    between atoms: _76  and  _77
REMARK   33  A    between atoms: _76  and  _79
REMARK   34  A    between atoms: _79  and  _80
REMARK   35  A    between atoms: _83  and  _85
REMARK   36  A    between atoms: _85  and  _86
REMARK   37  A    between atoms: _85  and  _88
REMARK   38  A    between atoms: _88  and  _89
REMARK   39  A    between atoms: _92  and  _94
REMARK   40  A    between atoms: _94  and  _95
REMARK   41  A    between atoms: _94  and  _97
REMARK   42  A    between atoms: _97  and  _98
REMARK   43  A    between atoms: _101  and  _103
REMARK   44  A    between atoms: _103  and  _104
REMARK   45  A    between atoms: _103  and  _106
REMARK   46  A    between atoms: _109  and  _111
REMARK   47  A    between atoms: _111  and  _112
REMARK   48  A    between atoms: _115  and  _117
REMARK   49  A    between atoms: _117  and  _118
REMARK   50  A    between atoms: _121  and  _123
REMARK   51  A    between atoms: _123  and  _124
REMARK   52  A    between atoms: _123  and  _126
REMARK   53  A    between atoms: _126  and  _127
REMARK   54  A    between atoms: _133  and  _134
REMARK   55  A    between atoms: _139  and  _141
REMARK   56  A    between atoms: _141  and  _142
REMARK   57  A    between atoms: _141  and  _144
REMARK   58  A    between atoms: _144  and  _145
REMARK   59  A    between atoms: _145  and  _146
REMARK   60  A    between atoms: _151  and  _153
REMARK   61  A    between atoms: _153  and  _154
REMARK   62  A    between atoms: _153  and  _156
REMARK   63  A    between atoms: _156  and  _157
REMARK   64  A    between atoms: _160  and  _162
REMARK   65  A    between atoms: _162  and  _163
REMARK   66  A    between atoms: _162  and  _165
REMARK   67  A    between atoms: _165  and  _166
REMARK   68  A    between atoms: _171  and  _173
REMARK   69  A    between atoms: _173  and  _174
REMARK   70  A    between atoms: _176  and  _178
REMARK   71  A    between atoms: _178  and  _179
REMARK   72  A    between atoms: _178  and  _181
REMARK   73  A    between atoms: _181  and  _182
REMARK   74  A    between atoms: _185  and  _187
REMARK   75  A    between atoms: _187  and  _188
REMARK   76  A    between atoms: _190  and  _192
REMARK   77  A    between atoms: _192  and  _193
REMARK   78  A    between atoms: _195  and  _197
REMARK   79  A    between atoms: _197  and  _198
REMARK   80  A    between atoms: _200  and  _202
REMARK   81  A    between atoms: _202  and  _203
REMARK   82  A    between atoms: _202  and  _205
REMARK   83  A    between atoms: _205  and  _206
REMARK   84  A    between atoms: _209  and  _211
REMARK   85  A    between atoms: _211  and  _212
REMARK   86  A    between atoms: _211  and  _214
REMARK   87  A    between atoms: _217  and  _219
REMARK   88  A    between atoms: _219  and  _220
REMARK   89  A    between atoms: _219  and  _222
REMARK   90  A    between atoms: _222  and  _223
REMARK   91  A    between atoms: _226  and  _228
REMARK   92  A    between atoms: _228  and  _229
REMARK   93  A    between atoms: _232  and  _234
REMARK   94  A    between atoms: _234  and  _235
REMARK   95  A    between atoms: _234  and  _237
REMARK   96  A    between atoms: _237  and  _238
REMARK   97  A    between atoms: _242  and  _243
REMARK   98  A    between atoms: _248  and  _250
REMARK   99  A    between atoms: _250  and  _251
REMARK  100  A    between atoms: _250  and  _253
REMARK  101  A    between atoms: _256  and  _258
REMARK  102  A    between atoms: _258  and  _259
REMARK  103  A    between atoms: _258  and  _261
REMARK  104  A    between atoms: _261  and  _262
REMARK  105  A    between atoms: _267  and  _269
REMARK  106  A    between atoms: _269  and  _270
REMARK  107  A    between atoms: _269  and  _272
REMARK  108  A    between atoms: _272  and  _273
REMARK  109  A    between atoms: _276  and  _278
REMARK  110  A    between atoms: _278  and  _279
REMARK  111  A    between atoms: _278  and  _281
REMARK  112  A    between atoms: _281  and  _282
REMARK  113  A    between atoms: _285  and  _287
REMARK  114  A    between atoms: _287  and  _288
REMARK  115  A    between atoms: _290  and  _292
REMARK  116  A    between atoms: _292  and  _293
REMARK  117  A    between atoms: _292  and  _295
REMARK  118  A    between atoms: _295  and  _296
REMARK  119  A    between atoms: _296  and  _297
REMARK  120  A    between atoms: _297  and  _298
REMARK  121  A    between atoms: _307  and  _309
REMARK  122  A    between atoms: _309  and  _310
REMARK  123  A    between atoms: _309  and  _312
REMARK  124  A    between atoms: _312  and  _313
REMARK  125  A    between atoms: _316  and  _318
REMARK  126  A    between atoms: _318  and  _319
REMARK  127  A    between atoms: _318  and  _321
REMARK  128  A    between atoms: _321  and  _322
REMARK  129  A    between atoms: _327  and  _329
REMARK  130  A    between atoms: _329  and  _330
REMARK  131  A    between atoms: _329  and  _332
REMARK  132  A    between atoms: _332  and  _333
REMARK  133  A    between atoms: _333  and  _334
REMARK  134  A    between atoms: _334  and  _335
REMARK  135  A    between atoms: _344  and  _346
REMARK  136  A    between atoms: _346  and  _347
REMARK  137  A    between atoms: _346  and  _349
REMARK  138  A    between atoms: _349  and  _350
REMARK  139  A    between atoms: _353  and  _355
REMARK  140  A    between atoms: _355  and  _356
REMARK  141  A    between atoms: _355  and  _358
REMARK  142  A    between atoms: _358  and  _359
REMARK  143  A    between atoms: _362  and  _364
REMARK  144  A    between atoms: _364  and  _365
REMARK  145  A    between atoms: _364  and  _367
REMARK  146  A    between atoms: _367  and  _368
REMARK  147  A    between atoms: _371  and  _373
REMARK  148  A    between atoms: _373  and  _374
REMARK  149  A    between atoms: _373  and  _376
REMARK  150  A    between atoms: _376  and  _377
REMARK  151  A    between atoms: _380  and  _382
REMARK  152  A    between atoms: _382  and  _383
REMARK  153  A    between atoms: _382  and  _385
REMARK  154  A    between atoms: _385  and  _386
REMARK  155  A    between atoms: _389  and  _391
REMARK  156  A    between atoms: _391  and  _392
REMARK  157  A    between atoms: _394  and  _396
REMARK  158  A    between atoms: _396  and  _397
REMARK  159  A    between atoms: _400  and  _402
REMARK  160  A    between atoms: _402  and  _403
REMARK  161  A    between atoms: _402  and  _405
REMARK  162  A    between atoms: _405  and  _406
REMARK  163  A    between atoms: _409  and  _411
REMARK  164  A    between atoms: _411  and  _412
REMARK  165  A    between atoms: _411  and  _414
REMARK  166  A    between atoms: _414  and  _415
REMARK  167  A    between atoms: _418  and  _420
REMARK  168  A    between atoms: _420  and  _421
REMARK  169  A    between atoms: _420  and  _423
REMARK  170  A    between atoms: _423  and  _424
REMARK  171  A    between atoms: _427  and  _429
REMARK  172  A    between atoms: _429  and  _430
REMARK  173  A    between atoms: _429  and  _432
REMARK  174  A    between atoms: _435  and  _437
REMARK  175  A    between atoms: _437  and  _438
REMARK  176  A    between atoms: _437  and  _440
REMARK  177  A    between atoms: _440  and  _441
REMARK  178  A    between atoms: _441  and  _442
REMARK  179  A    between atoms: _447  and  _449
REMARK  180  A    between atoms: _449  and  _450
REMARK  181  A    between atoms: _449  and  _452
REMARK  182  A    between atoms: _452  and  _453
REMARK  183  A    between atoms: _456  and  _458
REMARK  184  A    between atoms: _458  and  _459
REMARK  185  A    between atoms: _458  and  _461
REMARK  186  A    between atoms: _461  and  _462
REMARK  187  A    between atoms: _467  and  _469
REMARK  188  A    between atoms: _469  and  _470
REMARK  189  A    between atoms: _472  and  _474
REMARK  190  A    between atoms: _474  and  _475
REMARK  191  A    between atoms: _474  and  _477
REMARK  192  A    between atoms: _477  and  _478
REMARK  193  A    between atoms: _481  and  _483
REMARK  194  A    between atoms: _483  and  _484
REMARK  195  A    between atoms: _486  and  _488
REMARK  196  A    between atoms: _488  and  _489
REMARK  197  A    between atoms: _491  and  _493
REMARK  198  A    between atoms: _493  and  _494
REMARK  199  A    between atoms: _493  and  _496
REMARK  200  A    between atoms: _496  and  _497
REMARK  201  A    between atoms: _500  and  _502
REMARK  202  A    between atoms: _502  and  _503
REMARK  203  A    between atoms: _502  and  _505
REMARK  204  A    between atoms: _505  and  _506
REMARK  205  A    between atoms: _510  and  _511
REMARK  206  A    between atoms: _516  and  _518
REMARK  207  A    between atoms: _518  and  _519
REMARK  208  A    between atoms: _518  and  _521
REMARK  209  A    between atoms: _524  and  _526
REMARK  210  A    between atoms: _526  and  _527
REMARK  211  A    between atoms: _526  and  _529
REMARK  212  A    between atoms: _529  and  _530
REMARK  213  A    between atoms: _535  and  _537
REMARK  214  A    between atoms: _537  and  _538
REMARK  215  A    between atoms: _537  and  _540
REMARK  216  A    between atoms: _540  and  _541
REMARK  217  A    between atoms: _544  and  _546
REMARK  218  A    between atoms: _546  and  _547
REMARK  219  A    between atoms: _546  and  _549
REMARK  220  A    between atoms: _549  and  _550
REMARK  221  A    between atoms: _553  and  _555
REMARK  222  A    between atoms: _555  and  _556
REMARK  223  A    between atoms: _558  and  _560
REMARK  224  A    between atoms: _560  and  _561
REMARK  225  A    between atoms: _560  and  _563
REMARK  226  A    between atoms: _563  and  _564
REMARK  227  A    between atoms: _564  and  _565
REMARK  228  A    between atoms: _565  and  _566
REMARK                            x       y       z     vdW  Elec       q    Type
REMARK                         _______ _______ _______ _____ _____    ______ ____
ROOT
ATOM      1  O   HOH     1      -5.937  20.049  30.296  0.00  0.00    +0.000 OA
ENDROOT
TORSDOF 0
REMARK  Name = ../refined-set-2016/1bai/1bai_pocket.pdb
REMARK  228 active torsions:
REMARK  status: ('A' for Active; 'I' for Inactive)
REMARK    1  A    between atoms: _1  and  _3
REMARK    2  A    between atoms: _3  and  _4
REMARK    3  A    between atoms: _3  and  _6
REMARK    4  A    between atoms: _6  and  _7
REMARK    5  A    between atoms: _7  and  _8
REMARK    6  A    between atoms: _8  and  _9
REMARK    7  A    between atoms: _18  and  _20
REMARK    8  A    between atoms: _20  and  _21
REMARK    9  A    between atoms: _20  and  _23
REMARK   10  A    between atoms: _23  and  _24
REMARK   11  A    between atoms: _27  and  _29
REMARK   12  A    between atoms: _29  and  _30
REMARK   13  A    between atoms: _29  and  _32
REMARK   14  A    between atoms: _32  and  _33
REMARK   15  A    between atoms: _36  and  _38
REMARK   16  A    between atoms: _38  and  _39
REMARK   17  A    between atoms: _38  and  _41
REMARK   18  A    between atoms: _41  and  _42
REMARK   19  A    between atoms: _45  and  _47
REMARK   20  A    between atoms: _47  and  _48
REMARK   21  A    between atoms: _47  and  _50
REMARK   22  A    between atoms: _50  and  _51
REMARK   23  A    between atoms: _54  and  _56
REMARK   24  A    between atoms: _56  and  _57
REMARK   25  A    between atoms: _56  and  _59
REMARK   26  A    between atoms: _59  and  _60
REMARK   27  A    between atoms: _63  and  _65
REMARK   28  A    between atoms: _65  and  _66
REMARK   29  A    between atoms: _68  and  _70
REMARK   30  A    between atoms: _70  and  _71
REMARK   31  A    between atoms: _74  and  _76
REMARK   32  A    between atoms: _76  and  _77
REMARK   33  A    between atoms: _76  and  _79
REMARK   34  A    between atoms: _79  and  _80
REMARK   35  A    between atoms: _83  and  _85
REMARK   36  A    between atoms: _85  and  _86
REMARK   37  A    between atoms: _85  and  _88
REMARK   38  A    between atoms: _88  and  _89
REMARK   39  A    between atoms: _92  and  _94
REMARK   40  A    between atoms: _94  and  _95
REMARK   41  A    between atoms: _94  and  _97
REMARK   42  A    between atoms: _97  and  _98
REMARK   43  A    between atoms: _101  and  _103
REMARK   44  A    between atoms: _103  and  _104
REMARK   45  A    between atoms: _103  and  _106
REMARK   46  A    between atoms: _109  and  _111
REMARK   47  A    between atoms: _111  and  _112
REMARK   48  A    between atoms: _115  and  _117
REMARK   49  A    between atoms: _117  and  _118
REMARK   50  A    between atoms: _121  and  _123
REMARK   51  A    between atoms: _123  and  _124
REMARK   52  A    between atoms: _123  and  _126
REMARK   53  A    between atoms: _126  and  _127
REMARK   54  A    between atoms: _133  and  _134
REMARK   55  A    between atoms: _139  and  _141
REMARK   56  A    between atoms: _141  and  _142
REMARK   57  A    between atoms: _141  and  _144
REMARK   58  A    between atoms: _144  and  _145
REMARK   59  A    between atoms: _145  and  _146
REMARK   60  A    between atoms: _151  and  _153
REMARK   61  A    between atoms: _153  and  _154
REMARK   62  A    between atoms: _153  and  _156
REMARK   63  A    between atoms: _156  and  _157
REMARK   64  A    between atoms: _160  and  _162
REMARK   65  A    between atoms: _162  and  _163
REMARK   66  A    between atoms: _162  and  _165
REMARK   67  A    between atoms: _165  and  _166
REMARK   68  A    between atoms: _171  and  _173
REMARK   69  A    between atoms: _173  and  _174
REMARK   70  A    between atoms: _176  and  _178
REMARK   71  A    between atoms: _178  and  _179
REMARK   72  A    between atoms: _178  and  _181
REMARK   73  A    between atoms: _181  and  _182
REMARK   74  A    between atoms: _185  and  _187
REMARK   75  A    between atoms: _187  and  _188
REMARK   76  A    between atoms: _190  and  _192
REMARK   77  A    between atoms: _192  and  _193
REMARK   78  A    between atoms: _195  and  _197
REMARK   79  A    between atoms: _197  and  _198
REMARK   80  A    between atoms: _200  and  _202
REMARK   81  A    between atoms: _202  and  _203
REMARK   82  A    between atoms: _202  and  _205
REMARK   83  A    between atoms: _205  and  _206
REMARK   84  A    between atoms: _209  and  _211
REMARK   85  A    between atoms: _211  and  _212
REMARK   86  A    between atoms: _211  and  _214
REMARK   87  A    between atoms: _217  and  _219
REMARK   88  A    between atoms: _219  and  _220
REMARK   89  A    between atoms: _219  and  _222
REMARK   90  A    between atoms: _222  and  _223
REMARK   91  A    between atoms: _226  and  _228
REMARK   92  A    between atoms: _228  and  _229
REMARK   93  A    between atoms: _232  and  _234
REMARK   94  A    between atoms: _234  and  _235
REMARK   95  A    between atoms: _234  and  _237
REMARK   96  A    between atoms: _237  and  _238
REMARK   97  A    between atoms: _242  and  _243
REMARK   98  A    between atoms: _248  and  _250
REMARK   99  A    between atoms: _250  and  _251
REMARK  100  A    between atoms: _250  and  _253
REMARK  101  A    between atoms: _256  and  _258
REMARK  102  A    between atoms: _258  and  _259
REMARK  103  A    between atoms: _258  and  _261
REMARK  104  A    between atoms: _261  and  _262
REMARK  105  A    between atoms: _267  and  _269
REMARK  106  A    between atoms: _269  and  _270
REMARK  107  A    between atoms: _269  and  _272
REMARK  108  A    between atoms: _272  and  _273
REMARK  109  A    between atoms: _276  and  _278
REMARK  110  A    between atoms: _278  and  _279
REMARK  111  A    between atoms: _278  and  _281
REMARK  112  A    between atoms: _281  and  _282
REMARK  113  A    between atoms: _285  and  _287
REMARK  114  A    between atoms: _287  and  _288
REMARK  115  A    between atoms: _290  and  _292
REMARK  116  A    between atoms: _292  and  _293
REMARK  117  A    between atoms: _292  and  _295
REMARK  118  A    between atoms: _295  and  _296
REMARK  119  A    between atoms: _296  and  _297
REMARK  120  A    between atoms: _297  and  _298
REMARK  121  A    between atoms: _307  and  _309
REMARK  122  A    between atoms: _309  and  _310
REMARK  123  A    between atoms: _309  and  _312
REMARK  124  A    between atoms: _312  and  _313
REMARK  125  A    between atoms: _316  and  _318
REMARK  126  A    between atoms: _318  and  _319
REMARK  127  A    between atoms: _318  and  _321
REMARK  128  A    between atoms: _321  and  _322
REMARK  129  A    between atoms: _327  and  _329
REMARK  130  A    between atoms: _329  and  _330
REMARK  131  A    between atoms: _329  and  _332
REMARK  132  A    between atoms: _332  and  _333
REMARK  133  A    between atoms: _333  and  _334
REMARK  134  A    between atoms: _334  and  _335
REMARK  135  A    between atoms: _344  and  _346
REMARK  136  A    between atoms: _346  and  _347
REMARK  137  A    between atoms: _346  and  _349
REMARK  138  A    between atoms: _349  and  _350
REMARK  139  A    between atoms: _353  and  _355
REMARK  140  A    between atoms: _355  and  _356
REMARK  141  A    between atoms: _355  and  _358
REMARK  142  A    between atoms: _358  and  _359
REMARK  143  A    between atoms: _362  and  _364
REMARK  144  A    between atoms: _364  and  _365
REMARK  145  A    between atoms: _364  and  _367
REMARK  146  A    between atoms: _367  and  _368
REMARK  147  A    between atoms: _371  and  _373
REMARK  148  A    between atoms: _373  and  _374
REMARK  149  A    between atoms: _373  and  _376
REMARK  150  A    between atoms: _376  and  _377
REMARK  151  A    between atoms: _380  and  _382
REMARK  152  A    between atoms: _382  and  _383
REMARK  153  A    between atoms: _382  and  _385
REMARK  154  A    between atoms: _385  and  _386
REMARK  155  A    between atoms: _389  and  _391
REMARK  156  A    between atoms: _391  and  _392
REMARK  157  A    between atoms: _394  and  _396
REMARK  158  A    between atoms: _396  and  _397
REMARK  159  A    between atoms: _400  and  _402
REMARK  160  A    between atoms: _402  and  _403
REMARK  161  A    between atoms: _402  and  _405
REMARK  162  A    between atoms: _405  and  _406
REMARK  163  A    between atoms: _409  and  _411
REMARK  164  A    between atoms: _411  and  _412
REMARK  165  A    between atoms: _411  and  _414
REMARK  166  A    between atoms: _414  and  _415
REMARK  167  A    between atoms: _418  and  _420
REMARK  168  A    between atoms: _420  and  _421
REMARK  169  A    between atoms: _420  and  _423
REMARK  170  A    between atoms: _423  and  _424
REMARK  171  A    between atoms: _427  and  _429
REMARK  172  A    between atoms: _429  and  _430
REMARK  173  A    between atoms: _429  and  _432
REMARK  174  A    between atoms: _435  and  _437
REMARK  175  A    between atoms: _437  and  _438
REMARK  176  A    between atoms: _437  and  _440
REMARK  177  A    between atoms: _440  and  _441
REMARK  178  A    between atoms: _441  and  _442
REMARK  179  A    between atoms: _447  and  _449
REMARK  180  A    between atoms: _449  and  _450
REMARK  181  A    between atoms: _449  and  _452
REMARK  182  A    between atoms: _452  and  _453
REMARK  183  A    between atoms: _456  and  _458
REMARK  184  A    between atoms: _458  and  _459
REMARK  185  A    between atoms: _458  and  _461
REMARK  186  A    between atoms: _461  and  _462
REMARK  187  A    between atoms: _467  and  _469
REMARK  188  A    between atoms: _469  and  _470
REMARK  189  A    between atoms: _472  and  _474
REMARK  190  A    between atoms: _474  and  _475
REMARK  191  A    between atoms: _474  and  _477
REMARK  192  A    between atoms: _477  and  _478
REMARK  193  A    between atoms: _481  and  _483
REMARK  194  A    between atoms: _483  and  _484
REMARK  195  A    between atoms: _486  and  _488
REMARK  196  A    between atoms: _488  and  _489
REMARK  197  A    between atoms: _491  and  _493
REMARK  198  A    between atoms: _493  and  _494
REMARK  199  A    between atoms: _493  and  _496
REMARK  200  A    between atoms: _496  and  _497
REMARK  201  A    between atoms: _500  and  _502
REMARK  202  A    between atoms: _502  and  _503
REMARK  203  A    between atoms: _502  and  _505
REMARK  204  A    between atoms: _505  and  _506
REMARK  205  A    between atoms: _510  and  _511
REMARK  206  A    between atoms: _516  and  _518
REMARK  207  A    between atoms: _518  and  _519
REMARK  208  A    between atoms: _518  and  _521
REMARK  209  A    between atoms: _524  and  _526
REMARK  210  A    between atoms: _526  and  _527
REMARK  211  A    between atoms: _526  and  _529
REMARK  212  A    between atoms: _529  and  _530
REMARK  213  A    between atoms: _535  and  _537
REMARK  214  A    between atoms: _537  and  _538
REMARK  215  A    between atoms: _537  and  _540
REMARK  216  A    between atoms: _540  and  _541
REMARK  217  A    between atoms: _544  and  _546
REMARK  218  A    between atoms: _546  and  _547
REMARK  219  A    between atoms: _546  and  _549
REMARK  220  A    between atoms: _549  and  _550
REMARK  221  A    between atoms: _553  and  _555
REMARK  222  A    between atoms: _555  and  _556
REMARK  223  A    between atoms: _558  and  _560
REMARK  224  A    between atoms: _560  and  _561
REMARK  225  A    between atoms: _560  and  _563
REMARK  226  A    between atoms: _563  and  _564
REMARK  227  A    between atoms: _564  and  _565
REMARK  228  A    between atoms: _565  and  _566
REMARK                            x       y       z     vdW  Elec       q    Type
REMARK                         _______ _______ _______ _____ _____    ______ ____
ROOT
ATOM      1  O   HOH     1      -9.095   8.135  30.984  0.00  0.00    +0.000 OA
ENDROOT
TORSDOF 0
REMARK  Name = ../refined-set-2016/1bai/1bai_pocket.pdb
REMARK  228 active torsions:
REMARK  status: ('A' for Active; 'I' for Inactive)
REMARK    1  A    between atoms: _1  and  _3
REMARK    2  A    between atoms: _3  and  _4
REMARK    3  A    between atoms: _3  and  _6
REMARK    4  A    between atoms: _6  and  _7
REMARK    5  A    between atoms: _7  and  _8
REMARK    6  A    between atoms: _8  and  _9
REMARK    7  A    between atoms: _18  and  _20
REMARK    8  A    between atoms: _20  and  _21
REMARK    9  A    between atoms: _20  and  _23
REMARK   10  A    between atoms: _23  and  _24
REMARK   11  A    between atoms: _27  and  _29
REMARK   12  A    between atoms: _29  and  _30
REMARK   13  A    between atoms: _29  and  _32
REMARK   14  A    between atoms: _32  and  _33
REMARK   15  A    between atoms: _36  and  _38
REMARK   16  A    between atoms: _38  and  _39
REMARK   17  A    between atoms: _38  and  _41
REMARK   18  A    between atoms: _41  and  _42
REMARK   19  A    between atoms: _45  and  _47
REMARK   20  A    between atoms: _47  and  _48
REMARK   21  A    between atoms: _47  and  _50
REMARK   22  A    between atoms: _50  and  _51
REMARK   23  A    between atoms: _54  and  _56
REMARK   24  A    between atoms: _56  and  _57
REMARK   25  A    between atoms: _56  and  _59
REMARK   26  A    between atoms: _59  and  _60
REMARK   27  A    between atoms: _63  and  _65
REMARK   28  A    between atoms: _65  and  _66
REMARK   29  A    between atoms: _68  and  _70
REMARK   30  A    between atoms: _70  and  _71
REMARK   31  A    between atoms: _74  and  _76
REMARK   32  A    between atoms: _76  and  _77
REMARK   33  A    between atoms: _76  and  _79
REMARK   34  A    between atoms: _79  and  _80
REMARK   35  A    between atoms: _83  and  _85
REMARK   36  A    between atoms: _85  and  _86
REMARK   37  A    between atoms: _85  and  _88
REMARK   38  A    between atoms: _88  and  _89
REMARK   39  A    between atoms: _92  and  _94
REMARK   40  A    between atoms: _94  and  _95
REMARK   41  A    between atoms: _94  and  _97
REMARK   42  A    between atoms: _97  and  _98
REMARK   43  A    between atoms: _101  and  _103
REMARK   44  A    between atoms: _103  and  _104
REMARK   45  A    between atoms: _103  and  _106
REMARK   46  A    between atoms: _109  and  _111
REMARK   47  A    between atoms: _111  and  _112
REMARK   48  A    between atoms: _115  and  _117
REMARK   49  A    between atoms: _117  and  _118
REMARK   50  A    between atoms: _121  and  _123
REMARK   51  A    between atoms: _123  and  _124
REMARK   52  A    between atoms: _123  and  _126
REMARK   53  A    between atoms: _126  and  _127
REMARK   54  A    between atoms: _133  and  _134
REMARK   55  A    between atoms: _139  and  _141
REMARK   56  A    between atoms: _141  and  _142
REMARK   57  A    between atoms: _141  and  _144
REMARK   58  A    between atoms: _144  and  _145
REMARK   59  A    between atoms: _145  and  _146
REMARK   60  A    between atoms: _151  and  _153
REMARK   61  A    between atoms: _153  and  _154
REMARK   62  A    between atoms: _153  and  _156
REMARK   63  A    between atoms: _156  and  _157
REMARK   64  A    between atoms: _160  and  _162
REMARK   65  A    between atoms: _162  and  _163
REMARK   66  A    between atoms: _162  and  _165
REMARK   67  A    between atoms: _165  and  _166
REMARK   68  A    between atoms: _171  and  _173
REMARK   69  A    between atoms: _173  and  _174
REMARK   70  A    between atoms: _176  and  _178
REMARK   71  A    between atoms: _178  and  _179
REMARK   72  A    between atoms: _178  and  _181
REMARK   73  A    between atoms: _181  and  _182
REMARK   74  A    between atoms: _185  and  _187
REMARK   75  A    between atoms: _187  and  _188
REMARK   76  A    between atoms: _190  and  _192
REMARK   77  A    between atoms: _192  and  _193
REMARK   78  A    between atoms: _195  and  _197
REMARK   79  A    between atoms: _197  and  _198
REMARK   80  A    between atoms: _200  and  _202
REMARK   81  A    between atoms: _202  and  _203
REMARK   82  A    between atoms: _202  and  _205
REMARK   83  A    between atoms: _205  and  _206
REMARK   84  A    between atoms: _209  and  _211
REMARK   85  A    between atoms: _211  and  _212
REMARK   86  A    between atoms: _211  and  _214
REMARK   87  A    between atoms: _217  and  _219
REMARK   88  A    between atoms: _219  and  _220
REMARK   89  A    between atoms: _219  and  _222
REMARK   90  A    between atoms: _222  and  _223
REMARK   91  A    between atoms: _226  and  _228
REMARK   92  A    between atoms: _228  and  _229
REMARK   93  A    between atoms: _232  and  _234
REMARK   94  A    between atoms: _234  and  _235
REMARK   95  A    between atoms: _234  and  _237
REMARK   96  A    between atoms: _237  and  _238
REMARK   97  A    between atoms: _242  and  _243
REMARK   98  A    between atoms: _248  and  _250
REMARK   99  A    between atoms: _250  and  _251
REMARK  100  A    between atoms: _250  and  _253
REMARK  101  A    between atoms: _256  and  _258
REMARK  102  A    between atoms: _258  and  _259
REMARK  103  A    between atoms: _258  and  _261
REMARK  104  A    between atoms: _261  and  _262
REMARK  105  A    between atoms: _267  and  _269
REMARK  106  A    between atoms: _269  and  _270
REMARK  107  A    between atoms: _269  and  _272
REMARK  108  A    between atoms: _272  and  _273
REMARK  109  A    between atoms: _276  and  _278
REMARK  110  A    between atoms: _278  and  _279
REMARK  111  A    between atoms: _278  and  _281
REMARK  112  A    between atoms: _281  and  _282
REMARK  113  A    between atoms: _285  and  _287
REMARK  114  A    between atoms: _287  and  _288
REMARK  115  A    between atoms: _290  and  _292
REMARK  116  A    between atoms: _292  and  _293
REMARK  117  A    between atoms: _292  and  _295
REMARK  118  A    between atoms: _295  and  _296
REMARK  119  A    between atoms: _296  and  _297
REMARK  120  A    between atoms: _297  and  _298
REMARK  121  A    between atoms: _307  and  _309
REMARK  122  A    between atoms: _309  and  _310
REMARK  123  A    between atoms: _309  and  _312
REMARK  124  A    between atoms: _312  and  _313
REMARK  125  A    between atoms: _316  and  _318
REMARK  126  A    between atoms: _318  and  _319
REMARK  127  A    between atoms: _318  and  _321
REMARK  128  A    between atoms: _321  and  _322
REMARK  129  A    between atoms: _327  and  _329
REMARK  130  A    between atoms: _329  and  _330
REMARK  131  A    between atoms: _329  and  _332
REMARK  132  A    between atoms: _332  and  _333
REMARK  133  A    between atoms: _333  and  _334
REMARK  134  A    between atoms: _334  and  _335
REMARK  135  A    between atoms: _344  and  _346
REMARK  136  A    between atoms: _346  and  _347
REMARK  137  A    between atoms: _346  and  _349
REMARK  138  A    between atoms: _349  and  _350
REMARK  139  A    between atoms: _353  and  _355
REMARK  140  A    between atoms: _355  and  _356
REMARK  141  A    between atoms: _355  and  _358
REMARK  142  A    between atoms: _358  and  _359
REMARK  143  A    between atoms: _362  and  _364
REMARK  144  A    between atoms: _364  and  _365
REMARK  145  A    between atoms: _364  and  _367
REMARK  146  A    between atoms: _367  and  _368
REMARK  147  A    between atoms: _371  and  _373
REMARK  148  A    between atoms: _373  and  _374
REMARK  149  A    between atoms: _373  and  _376
REMARK  150  A    between atoms: _376  and  _377
REMARK  151  A    between atoms: _380  and  _382
REMARK  152  A    between atoms: _382  and  _383
REMARK  153  A    between atoms: _382  and  _385
REMARK  154  A    between atoms: _385  and  _386
REMARK  155  A    between atoms: _389  and  _391
REMARK  156  A    between atoms: _391  and  _392
REMARK  157  A    between atoms: _394  and  _396
REMARK  158  A    between atoms: _396  and  _397
REMARK  159  A    between atoms: _400  and  _402
REMARK  160  A    between atoms: _402  and  _403
REMARK  161  A    between atoms: _402  and  _405
REMARK  162  A    between atoms: _405  and  _406
REMARK  163  A    between atoms: _409  and  _411
REMARK  164  A    between atoms: _411  and  _412
REMARK  165  A    between atoms: _411  and  _414
REMARK  166  A    between atoms: _414  and  _415
REMARK  167  A    between atoms: _418  and  _420
REMARK  168  A    between atoms: _420  and  _421
REMARK  169  A    between atoms: _420  and  _423
REMARK  170  A    between atoms: _423  and  _424
REMARK  171  A    between atoms: _427  and  _429
REMARK  172  A    between atoms: _429  and  _430
REMARK  173  A    between atoms: _429  and  _432
REMARK  174  A    between atoms: _435  and  _437
REMARK  175  A    between atoms: _437  and  _438
REMARK  176  A    between atoms: _437  and  _440
REMARK  177  A    between atoms: _440  and  _441
REMARK  178  A    between atoms: _441  and  _442
REMARK  179  A    between atoms: _447  and  _449
REMARK  180  A    between atoms: _449  and  _450
REMARK  181  A    between atoms: _449  and  _452
REMARK  182  A    between atoms: _452  and  _453
REMARK  183  A    between atoms: _456  and  _458
REMARK  184  A    between atoms: _458  and  _459
REMARK  185  A    between atoms: _458  and  _461
REMARK  186  A    between atoms: _461  and  _462
REMARK  187  A    between atoms: _467  and  _469
REMARK  188  A    between atoms: _469  and  _470
REMARK  189  A    between atoms: _472  and  _474
REMARK  190  A    between atoms: _474  and  _475
REMARK  191  A    between atoms: _474  and  _477
REMARK  192  A    between atoms: _477  and  _478
REMARK  193  A    between atoms: _481  and  _483
REMARK  194  A    between atoms: _483  and  _484
REMARK  195  A    between atoms: _486  and  _488
REMARK  196  A    between atoms: _488  and  _489
REMARK  197  A    between atoms: _491  and  _493
REMARK  198  A    between atoms: _493  and  _494
REMARK  199  A    between atoms: _493  and  _496
REMARK  200  A    between atoms: _496  and  _497
REMARK  201  A    between atoms: _500  and  _502
REMARK  202  A    between atoms: _502  and  _503
REMARK  203  A    between atoms: _502  and  _505
REMARK  204  A    between atoms: _505  and  _506
REMARK  205  A    between atoms: _510  and  _511
REMARK  206  A    between atoms: _516  and  _518
REMARK  207  A    between atoms: _518  and  _519
REMARK  208  A    between atoms: _518  and  _521
REMARK  209  A    between atoms: _524  and  _526
REMARK  210  A    between atoms: _526  and  _527
REMARK  211  A    between atoms: _526  and  _529
REMARK  212  A    between atoms: _529  and  _530
REMARK  213  A    between atoms: _535  and  _537
REMARK  214  A    between atoms: _537  and  _538
REMARK  215  A    between atoms: _537  and  _540
REMARK  216  A    between atoms: _540  and  _541
REMARK  217  A    between atoms: _544  and  _546
REMARK  218  A    between atoms: _546  and  _547
REMARK  219  A    between atoms: _546  and  _549
REMARK  220  A    between atoms: _549  and  _550
REMARK  221  A    between atoms: _553  and  _555
REMARK  222  A    between atoms: _555  and  _556
REMARK  223  A    between atoms: _558  and  _560
REMARK  224  A    between atoms: _560  and  _561
REMARK  225  A    between atoms: _560  and  _563
REMARK  226  A    between atoms: _563  and  _564
REMARK  227  A    between atoms: _564  and  _565
REMARK  228  A    between atoms: _565  and  _566
REMARK                            x       y       z     vdW  Elec       q    Type
REMARK                         _______ _______ _______ _____ _____    ______ ____
ROOT
ATOM      1  O   HOH     1       0.907   9.252  39.253  0.00  0.00    +0.000 OA
ENDROOT
TORSDOF 0
REMARK  Name = ../refined-set-2016/1bai/1bai_pocket.pdb
REMARK  228 active torsions:
REMARK  status: ('A' for Active; 'I' for Inactive)
REMARK    1  A    between atoms: _1  and  _3
REMARK    2  A    between atoms: _3  and  _4
REMARK    3  A    between atoms: _3  and  _6
REMARK    4  A    between atoms: _6  and  _7
REMARK    5  A    between atoms: _7  and  _8
REMARK    6  A    between atoms: _8  and  _9
REMARK    7  A    between atoms: _18  and  _20
REMARK    8  A    between atoms: _20  and  _21
REMARK    9  A    between atoms: _20  and  _23
REMARK   10  A    between atoms: _23  and  _24
REMARK   11  A    between atoms: _27  and  _29
REMARK   12  A    between atoms: _29  and  _30
REMARK   13  A    between atoms: _29  and  _32
REMARK   14  A    between atoms: _32  and  _33
REMARK   15  A    between atoms: _36  and  _38
REMARK   16  A    between atoms: _38  and  _39
REMARK   17  A    between atoms: _38  and  _41
REMARK   18  A    between atoms: _41  and  _42
REMARK   19  A    between atoms: _45  and  _47
REMARK   20  A    between atoms: _47  and  _48
REMARK   21  A    between atoms: _47  and  _50
REMARK   22  A    between atoms: _50  and  _51
REMARK   23  A    between atoms: _54  and  _56
REMARK   24  A    between atoms: _56  and  _57
REMARK   25  A    between atoms: _56  and  _59
REMARK   26  A    between atoms: _59  and  _60
REMARK   27  A    between atoms: _63  and  _65
REMARK   28  A    between atoms: _65  and  _66
REMARK   29  A    between atoms: _68  and  _70
REMARK   30  A    between atoms: _70  and  _71
REMARK   31  A    between atoms: _74  and  _76
REMARK   32  A    between atoms: _76  and  _77
REMARK   33  A    between atoms: _76  and  _79
REMARK   34  A    between atoms: _79  and  _80
REMARK   35  A    between atoms: _83  and  _85
REMARK   36  A    between atoms: _85  and  _86
REMARK   37  A    between atoms: _85  and  _88
REMARK   38  A    between atoms: _88  and  _89
REMARK   39  A    between atoms: _92  and  _94
REMARK   40  A    between atoms: _94  and  _95
REMARK   41  A    between atoms: _94  and  _97
REMARK   42  A    between atoms: _97  and  _98
REMARK   43  A    between atoms: _101  and  _103
REMARK   44  A    between atoms: _103  and  _104
REMARK   45  A    between atoms: _103  and  _106
REMARK   46  A    between atoms: _109  and  _111
REMARK   47  A    between atoms: _111  and  _112
REMARK   48  A    between atoms: _115  and  _117
REMARK   49  A    between atoms: _117  and  _118
REMARK   50  A    between atoms: _121  and  _123
REMARK   51  A    between atoms: _123  and  _124
REMARK   52  A    between atoms: _123  and  _126
REMARK   53  A    between atoms: _126  and  _127
REMARK   54  A    between atoms: _133  and  _134
REMARK   55  A    between atoms: _139  and  _141
REMARK   56  A    between atoms: _141  and  _142
REMARK   57  A    between atoms: _141  and  _144
REMARK   58  A    between atoms: _144  and  _145
REMARK   59  A    between atoms: _145  and  _146
REMARK   60  A    between atoms: _151  and  _153
REMARK   61  A    between atoms: _153  and  _154
REMARK   62  A    between atoms: _153  and  _156
REMARK   63  A    between atoms: _156  and  _157
REMARK   64  A    between atoms: _160  and  _162
REMARK   65  A    between atoms: _162  and  _163
REMARK   66  A    between atoms: _162  and  _165
REMARK   67  A    between atoms: _165  and  _166
REMARK   68  A    between atoms: _171  and  _173
REMARK   69  A    between atoms: _173  and  _174
REMARK   70  A    between atoms: _176  and  _178
REMARK   71  A    between atoms: _178  and  _179
REMARK   72  A    between atoms: _178  and  _181
REMARK   73  A    between atoms: _181  and  _182
REMARK   74  A    between atoms: _185  and  _187
REMARK   75  A    between atoms: _187  and  _188
REMARK   76  A    between atoms: _190  and  _192
REMARK   77  A    between atoms: _192  and  _193
REMARK   78  A    between atoms: _195  and  _197
REMARK   79  A    between atoms: _197  and  _198
REMARK   80  A    between atoms: _200  and  _202
REMARK   81  A    between atoms: _202  and  _203
REMARK   82  A    between atoms: _202  and  _205
REMARK   83  A    between atoms: _205  and  _206
REMARK   84  A    between atoms: _209  and  _211
REMARK   85  A    between atoms: _211  and  _212
REMARK   86  A    between atoms: _211  and  _214
REMARK   87  A    between atoms: _217  and  _219
REMARK   88  A    between atoms: _219  and  _220
REMARK   89  A    between atoms: _219  and  _222
REMARK   90  A    between atoms: _222  and  _223
REMARK   91  A    between atoms: _226  and  _228
REMARK   92  A    between atoms: _228  and  _229
REMARK   93  A    between atoms: _232  and  _234
REMARK   94  A    between atoms: _234  and  _235
REMARK   95  A    between atoms: _234  and  _237
REMARK   96  A    between atoms: _237  and  _238
REMARK   97  A    between atoms: _242  and  _243
REMARK   98  A    between atoms: _248  and  _250
REMARK   99  A    between atoms: _250  and  _251
REMARK  100  A    between atoms: _250  and  _253
REMARK  101  A    between atoms: _256  and  _258
REMARK  102  A    between atoms: _258  and  _259
REMARK  103  A    between atoms: _258  and  _261
REMARK  104  A    between atoms: _261  and  _262
REMARK  105  A    between atoms: _267  and  _269
REMARK  106  A    between atoms: _269  and  _270
REMARK  107  A    between atoms: _269  and  _272
REMARK  108  A    between atoms: _272  and  _273
REMARK  109  A    between atoms: _276  and  _278
REMARK  110  A    between atoms: _278  and  _279
REMARK  111  A    between atoms: _278  and  _281
REMARK  112  A    between atoms: _281  and  _282
REMARK  113  A    between atoms: _285  and  _287
REMARK  114  A    between atoms: _287  and  _288
REMARK  115  A    between atoms: _290  and  _292
REMARK  116  A    between atoms: _292  and  _293
REMARK  117  A    between atoms: _292  and  _295
REMARK  118  A    between atoms: _295  and  _296
REMARK  119  A    between atoms: _296  and  _297
REMARK  120  A    between atoms: _297  and  _298
REMARK  121  A    between atoms: _307  and  _309
REMARK  122  A    between atoms: _309  and  _310
REMARK  123  A    between atoms: _309  and  _312
REMARK  124  A    between atoms: _312  and  _313
REMARK  125  A    between atoms: _316  and  _318
REMARK  126  A    between atoms: _318  and  _319
REMARK  127  A    between atoms: _318  and  _321
REMARK  128  A    between atoms: _321  and  _322
REMARK  129  A    between atoms: _327  and  _329
REMARK  130  A    between atoms: _329  and  _330
REMARK  131  A    between atoms: _329  and  _332
REMARK  132  A    between atoms: _332  and  _333
REMARK  133  A    between atoms: _333  and  _334
REMARK  134  A    between atoms: _334  and  _335
REMARK  135  A    between atoms: _344  and  _346
REMARK  136  A    between atoms: _346  and  _347
REMARK  137  A    between atoms: _346  and  _349
REMARK  138  A    between atoms: _349  and  _350
REMARK  139  A    between atoms: _353  and  _355
REMARK  140  A    between atoms: _355  and  _356
REMARK  141  A    between atoms: _355  and  _358
REMARK  142  A    between atoms: _358  and  _359
REMARK  143  A    between atoms: _362  and  _364
REMARK  144  A    between atoms: _364  and  _365
REMARK  145  A    between atoms: _364  and  _367
REMARK  146  A    between atoms: _367  and  _368
REMARK  147  A    between atoms: _371  and  _373
REMARK  148  A    between atoms: _373  and  _374
REMARK  149  A    between atoms: _373  and  _376
REMARK  150  A    between atoms: _376  and  _377
REMARK  151  A    between atoms: _380  and  _382
REMARK  152  A    between atoms: _382  and  _383
REMARK  153  A    between atoms: _382  and  _385
REMARK  154  A    between atoms: _385  and  _386
REMARK  155  A    between atoms: _389  and  _391
REMARK  156  A    between atoms: _391  and  _392
REMARK  157  A    between atoms: _394  and  _396
REMARK  158  A    between atoms: _396  and  _397
REMARK  159  A    between atoms: _400  and  _402
REMARK  160  A    between atoms: _402  and  _403
REMARK  161  A    between atoms: _402  and  _405
REMARK  162  A    between atoms: _405  and  _406
REMARK  163  A    between atoms: _409  and  _411
REMARK  164  A    between atoms: _411  and  _412
REMARK  165  A    between atoms: _411  and  _414
REMARK  166  A    between atoms: _414  and  _415
REMARK  167  A    between atoms: _418  and  _420
REMARK  168  A    between atoms: _420  and  _421
REMARK  169  A    between atoms: _420  and  _423
REMARK  170  A    between atoms: _423  and  _424
REMARK  171  A    between atoms: _427  and  _429
REMARK  172  A    between atoms: _429  and  _430
REMARK  173  A    between atoms: _429  and  _432
REMARK  174  A    between atoms: _435  and  _437
REMARK  175  A    between atoms: _437  and  _438
REMARK  176  A    between atoms: _437  and  _440
REMARK  177  A    between atoms: _440  and  _441
REMARK  178  A    between atoms: _441  and  _442
REMARK  179  A    between atoms: _447  and  _449
REMARK  180  A    between atoms: _449  and  _450
REMARK  181  A    between atoms: _449  and  _452
REMARK  182  A    between atoms: _452  and  _453
REMARK  183  A    between atoms: _456  and  _458
REMARK  184  A    between atoms: _458  and  _459
REMARK  185  A    between atoms: _458  and  _461
REMARK  186  A    between atoms: _461  and  _462
REMARK  187  A    between atoms: _467  and  _469
REMARK  188  A    between atoms: _469  and  _470
REMARK  189  A    between atoms: _472  and  _474
REMARK  190  A    between atoms: _474  and  _475
REMARK  191  A    between atoms: _474  and  _477
REMARK  192  A    between atoms: _477  and  _478
REMARK  193  A    between atoms: _481  and  _483
REMARK  194  A    between atoms: _483  and  _484
REMARK  195  A    between atoms: _486  and  _488
REMARK  196  A    between atoms: _488  and  _489
REMARK  197  A    between atoms: _491  and  _493
REMARK  198  A    between atoms: _493  and  _494
REMARK  199  A    between atoms: _493  and  _496
REMARK  200  A    between atoms: _496  and  _497
REMARK  201  A    between atoms: _500  and  _502
REMARK  202  A    between atoms: _502  and  _503
REMARK  203  A    between atoms: _502  and  _505
REMARK  204  A    between atoms: _505  and  _506
REMARK  205  A    between atoms: _510  and  _511
REMARK  206  A    between atoms: _516  and  _518
REMARK  207  A    between atoms: _518  and  _519
REMARK  208  A    between atoms: _518  and  _521
REMARK  209  A    between atoms: _524  and  _526
REMARK  210  A    between atoms: _526  and  _527
REMARK  211  A    between atoms: _526  and  _529
REMARK  212  A    between atoms: _529  and  _530
REMARK  213  A    between atoms: _535  and  _537
REMARK  214  A    between atoms: _537  and  _538
REMARK  215  A    between atoms: _537  and  _540
REMARK  216  A    between atoms: _540  and  _541
REMARK  217  A    between atoms: _544  and  _546
REMARK  218  A    between atoms: _546  and  _547
REMARK  219  A    between atoms: _546  and  _549
REMARK  220  A    between atoms: _549  and  _550
REMARK  221  A    between atoms: _553  and  _555
REMARK  222  A    between atoms: _555  and  _556
REMARK  223  A    between atoms: _558  and  _560
REMARK  224  A    between atoms: _560  and  _561
REMARK  225  A    between atoms: _560  and  _563
REMARK  226  A    between atoms: _563  and  _564
REMARK  227  A    between atoms: _564  and  _565
REMARK  228  A    between atoms: _565  and  _566
REMARK                            x       y       z     vdW  Elec       q    Type
REMARK                         _______ _______ _______ _____ _____    ______ ____
ROOT
ATOM      1  O   HOH     1     -12.509   8.005  33.823  0.00  0.00    +0.000 OA
ENDROOT
TORSDOF 0
REMARK  Name = ../refined-set-2016/1bai/1bai_pocket.pdb
REMARK  228 active torsions:
REMARK  status: ('A' for Active; 'I' for Inactive)
REMARK    1  A    between atoms: _1  and  _3
REMARK    2  A    between atoms: _3  and  _4
REMARK    3  A    between atoms: _3  and  _6
REMARK    4  A    between atoms: _6  and  _7
REMARK    5  A    between atoms: _7  and  _8
REMARK    6  A    between atoms: _8  and  _9
REMARK    7  A    between atoms: _18  and  _20
REMARK    8  A    between atoms: _20  and  _21
REMARK    9  A    between atoms: _20  and  _23
REMARK   10  A    between atoms: _23  and  _24
REMARK   11  A    between atoms: _27  and  _29
REMARK   12  A    between atoms: _29  and  _30
REMARK   13  A    between atoms: _29  and  _32
REMARK   14  A    between atoms: _32  and  _33
REMARK   15  A    between atoms: _36  and  _38
REMARK   16  A    between atoms: _38  and  _39
REMARK   17  A    between atoms: _38  and  _41
REMARK   18  A    between atoms: _41  and  _42
REMARK   19  A    between atoms: _45  and  _47
REMARK   20  A    between atoms: _47  and  _48
REMARK   21  A    between atoms: _47  and  _50
REMARK   22  A    between atoms: _50  and  _51
REMARK   23  A    between atoms: _54  and  _56
REMARK   24  A    between atoms: _56  and  _57
REMARK   25  A    between atoms: _56  and  _59
REMARK   26  A    between atoms: _59  and  _60
REMARK   27  A    between atoms: _63  and  _65
REMARK   28  A    between atoms: _65  and  _66
REMARK   29  A    between atoms: _68  and  _70
REMARK   30  A    between atoms: _70  and  _71
REMARK   31  A    between atoms: _74  and  _76
REMARK   32  A    between atoms: _76  and  _77
REMARK   33  A    between atoms: _76  and  _79
REMARK   34  A    between atoms: _79  and  _80
REMARK   35  A    between atoms: _83  and  _85
REMARK   36  A    between atoms: _85  and  _86
REMARK   37  A    between atoms: _85  and  _88
REMARK   38  A    between atoms: _88  and  _89
REMARK   39  A    between atoms: _92  and  _94
REMARK   40  A    between atoms: _94  and  _95
REMARK   41  A    between atoms: _94  and  _97
REMARK   42  A    between atoms: _97  and  _98
REMARK   43  A    between atoms: _101  and  _103
REMARK   44  A    between atoms: _103  and  _104
REMARK   45  A    between atoms: _103  and  _106
REMARK   46  A    between atoms: _109  and  _111
REMARK   47  A    between atoms: _111  and  _112
REMARK   48  A    between atoms: _115  and  _117
REMARK   49  A    between atoms: _117  and  _118
REMARK   50  A    between atoms: _121  and  _123
REMARK   51  A    between atoms: _123  and  _124
REMARK   52  A    between atoms: _123  and  _126
REMARK   53  A    between atoms: _126  and  _127
REMARK   54  A    between atoms: _133  and  _134
REMARK   55  A    between atoms: _139  and  _141
REMARK   56  A    between atoms: _141  and  _142
REMARK   57  A    between atoms: _141  and  _144
REMARK   58  A    between atoms: _144  and  _145
REMARK   59  A    between atoms: _145  and  _146
REMARK   60  A    between atoms: _151  and  _153
REMARK   61  A    between atoms: _153  and  _154
REMARK   62  A    between atoms: _153  and  _156
REMARK   63  A    between atoms: _156  and  _157
REMARK   64  A    between atoms: _160  and  _162
REMARK   65  A    between atoms: _162  and  _163
REMARK   66  A    between atoms: _162  and  _165
REMARK   67  A    between atoms: _165  and  _166
REMARK   68  A    between atoms: _171  and  _173
REMARK   69  A    between atoms: _173  and  _174
REMARK   70  A    between atoms: _176  and  _178
REMARK   71  A    between atoms: _178  and  _179
REMARK   72  A    between atoms: _178  and  _181
REMARK   73  A    between atoms: _181  and  _182
REMARK   74  A    between atoms: _185  and  _187
REMARK   75  A    between atoms: _187  and  _188
REMARK   76  A    between atoms: _190  and  _192
REMARK   77  A    between atoms: _192  and  _193
REMARK   78  A    between atoms: _195  and  _197
REMARK   79  A    between atoms: _197  and  _198
REMARK   80  A    between atoms: _200  and  _202
REMARK   81  A    between atoms: _202  and  _203
REMARK   82  A    between atoms: _202  and  _205
REMARK   83  A    between atoms: _205  and  _206
REMARK   84  A    between atoms: _209  and  _211
REMARK   85  A    between atoms: _211  and  _212
REMARK   86  A    between atoms: _211  and  _214
REMARK   87  A    between atoms: _217  and  _219
REMARK   88  A    between atoms: _219  and  _220
REMARK   89  A    between atoms: _219  and  _222
REMARK   90  A    between atoms: _222  and  _223
REMARK   91  A    between atoms: _226  and  _228
REMARK   92  A    between atoms: _228  and  _229
REMARK   93  A    between atoms: _232  and  _234
REMARK   94  A    between atoms: _234  and  _235
REMARK   95  A    between atoms: _234  and  _237
REMARK   96  A    between atoms: _237  and  _238
REMARK   97  A    between atoms: _242  and  _243
REMARK   98  A    between atoms: _248  and  _250
REMARK   99  A    between atoms: _250  and  _251
REMARK  100  A    between atoms: _250  and  _253
REMARK  101  A    between atoms: _256  and  _258
REMARK  102  A    between atoms: _258  and  _259
REMARK  103  A    between atoms: _258  and  _261
REMARK  104  A    between atoms: _261  and  _262
REMARK  105  A    between atoms: _267  and  _269
REMARK  106  A    between atoms: _269  and  _270
REMARK  107  A    between atoms: _269  and  _272
REMARK  108  A    between atoms: _272  and  _273
REMARK  109  A    between atoms: _276  and  _278
REMARK  110  A    between atoms: _278  and  _279
REMARK  111  A    between atoms: _278  and  _281
REMARK  112  A    between atoms: _281  and  _282
REMARK  113  A    between atoms: _285  and  _287
REMARK  114  A    between atoms: _287  and  _288
REMARK  115  A    between atoms: _290  and  _292
REMARK  116  A    between atoms: _292  and  _293
REMARK  117  A    between atoms: _292  and  _295
REMARK  118  A    between atoms: _295  and  _296
REMARK  119  A    between atoms: _296  and  _297
REMARK  120  A    between atoms: _297  and  _298
REMARK  121  A    between atoms: _307  and  _309
REMARK  122  A    between atoms: _309  and  _310
REMARK  123  A    between atoms: _309  and  _312
REMARK  124  A    between atoms: _312  and  _313
REMARK  125  A    between atoms: _316  and  _318
REMARK  126  A    between atoms: _318  and  _319
REMARK  127  A    between atoms: _318  and  _321
REMARK  128  A    between atoms: _321  and  _322
REMARK  129  A    between atoms: _327  and  _329
REMARK  130  A    between atoms: _329  and  _330
REMARK  131  A    between atoms: _329  and  _332
REMARK  132  A    between atoms: _332  and  _333
REMARK  133  A    between atoms: _333  and  _334
REMARK  134  A    between atoms: _334  and  _335
REMARK  135  A    between atoms: _344  and  _346
REMARK  136  A    between atoms: _346  and  _347
REMARK  137  A    between atoms: _346  and  _349
REMARK  138  A    between atoms: _349  and  _350
REMARK  139  A    between atoms: _353  and  _355
REMARK  140  A    between atoms: _355  and  _356
REMARK  141  A    between atoms: _355  and  _358
REMARK  142  A    between atoms: _358  and  _359
REMARK  143  A    between atoms: _362  and  _364
REMARK  144  A    between atoms: _364  and  _365
REMARK  145  A    between atoms: _364  and  _367
REMARK  146  A    between atoms: _367  and  _368
REMARK  147  A    between atoms: _371  and  _373
REMARK  148  A    between atoms: _373  and  _374
REMARK  149  A    between atoms: _373  and  _376
REMARK  150  A    between atoms: _376  and  _377
REMARK  151  A    between atoms: _380  and  _382
REMARK  152  A    between atoms: _382  and  _383
REMARK  153  A    between atoms: _382  and  _385
REMARK  154  A    between atoms: _385  and  _386
REMARK  155  A    between atoms: _389  and  _391
REMARK  156  A    between atoms: _391  and  _392
REMARK  157  A    between atoms: _394  and  _396
REMARK  158  A    between atoms: _396  and  _397
REMARK  159  A    between atoms: _400  and  _402
REMARK  160  A    between atoms: _402  and  _403
REMARK  161  A    between atoms: _402  and  _405
REMARK  162  A    between atoms: _405  and  _406
REMARK  163  A    between atoms: _409  and  _411
REMARK  164  A    between atoms: _411  and  _412
REMARK  165  A    between atoms: _411  and  _414
REMARK  166  A    between atoms: _414  and  _415
REMARK  167  A    between atoms: _418  and  _420
REMARK  168  A    between atoms: _420  and  _421
REMARK  169  A    between atoms: _420  and  _423
REMARK  170  A    between atoms: _423  and  _424
REMARK  171  A    between atoms: _427  and  _429
REMARK  172  A    between atoms: _429  and  _430
REMARK  173  A    between atoms: _429  and  _432
REMARK  174  A    between atoms: _435  and  _437
REMARK  175  A    between atoms: _437  and  _438
REMARK  176  A    between atoms: _437  and  _440
REMARK  177  A    between atoms: _440  and  _441
REMARK  178  A    between atoms: _441  and  _442
REMARK  179  A    between atoms: _447  and  _449
REMARK  180  A    between atoms: _449  and  _450
REMARK  181  A    between atoms: _449  and  _452
REMARK  182  A    between atoms: _452  and  _453
REMARK  183  A    between atoms: _456  and  _458
REMARK  184  A    between atoms: _458  and  _459
REMARK  185  A    between atoms: _458  and  _461
REMARK  186  A    between atoms: _461  and  _462
REMARK  187  A    between atoms: _467  and  _469
REMARK  188  A    between atoms: _469  and  _470
REMARK  189  A    between atoms: _472  and  _474
REMARK  190  A    between atoms: _474  and  _475
REMARK  191  A    between atoms: _474  and  _477
REMARK  192  A    between atoms: _477  and  _478
REMARK  193  A    between atoms: _481  and  _483
REMARK  194  A    between atoms: _483  and  _484
REMARK  195  A    between atoms: _486  and  _488
REMARK  196  A    between atoms: _488  and  _489
REMARK  197  A    between atoms: _491  and  _493
REMARK  198  A    between atoms: _493  and  _494
REMARK  199  A    between atoms: _493  and  _496
REMARK  200  A    between atoms: _496  and  _497
REMARK  201  A    between atoms: _500  and  _502
REMARK  202  A    between atoms: _502  and  _503
REMARK  203  A    between atoms: _502  and  _505
REMARK  204  A    between atoms: _505  and  _506
REMARK  205  A    between atoms: _510  and  _511
REMARK  206  A    between atoms: _516  and  _518
REMARK  207  A    between atoms: _518  and  _519
REMARK  208  A    between atoms: _518  and  _521
REMARK  209  A    between atoms: _524  and  _526
REMARK  210  A    between atoms: _526  and  _527
REMARK  211  A    between atoms: _526  and  _529
REMARK  212  A    between atoms: _529  and  _530
REMARK  213  A    between atoms: _535  and  _537
REMARK  214  A    between atoms: _537  and  _538
REMARK  215  A    between atoms: _537  and  _540
REMARK  216  A    between atoms: _540  and  _541
REMARK  217  A    between atoms: _544  and  _546
REMARK  218  A    between atoms: _546  and  _547
REMARK  219  A    between atoms: _546  and  _549
REMARK  220  A    between atoms: _549  and  _550
REMARK  221  A    between atoms: _553  and  _555
REMARK  222  A    between atoms: _555  and  _556
REMARK  223  A    between atoms: _558  and  _560
REMARK  224  A    between atoms: _560  and  _561
REMARK  225  A    between atoms: _560  and  _563
REMARK  226  A    between atoms: _563  and  _564
REMARK  227  A    between atoms: _564  and  _565
REMARK  228  A    between atoms: _565  and  _566
REMARK                            x       y       z     vdW  Elec       q    Type
REMARK                         _______ _______ _______ _____ _____    ______ ____
ROOT
ATOM      1  O   HOH     1      -5.059  10.055  28.661  0.00  0.00    +0.000 OA
ENDROOT
TORSDOF 0
REMARK  Name = ../refined-set-2016/1bai/1bai_pocket.pdb
REMARK  228 active torsions:
REMARK  status: ('A' for Active; 'I' for Inactive)
REMARK    1  A    between atoms: _1  and  _3
REMARK    2  A    between atoms: _3  and  _4
REMARK    3  A    between atoms: _3  and  _6
REMARK    4  A    between atoms: _6  and  _7
REMARK    5  A    between atoms: _7  and  _8
REMARK    6  A    between atoms: _8  and  _9
REMARK    7  A    between atoms: _18  and  _20
REMARK    8  A    between atoms: _20  and  _21
REMARK    9  A    between atoms: _20  and  _23
REMARK   10  A    between atoms: _23  and  _24
REMARK   11  A    between atoms: _27  and  _29
REMARK   12  A    between atoms: _29  and  _30
REMARK   13  A    between atoms: _29  and  _32
REMARK   14  A    between atoms: _32  and  _33
REMARK   15  A    between atoms: _36  and  _38
REMARK   16  A    between atoms: _38  and  _39
REMARK   17  A    between atoms: _38  and  _41
REMARK   18  A    between atoms: _41  and  _42
REMARK   19  A    between atoms: _45  and  _47
REMARK   20  A    between atoms: _47  and  _48
REMARK   21  A    between atoms: _47  and  _50
REMARK   22  A    between atoms: _50  and  _51
REMARK   23  A    between atoms: _54  and  _56
REMARK   24  A    between atoms: _56  and  _57
REMARK   25  A    between atoms: _56  and  _59
REMARK   26  A    between atoms: _59  and  _60
REMARK   27  A    between atoms: _63  and  _65
REMARK   28  A    between atoms: _65  and  _66
REMARK   29  A    between atoms: _68  and  _70
REMARK   30  A    between atoms: _70  and  _71
REMARK   31  A    between atoms: _74  and  _76
REMARK   32  A    between atoms: _76  and  _77
REMARK   33  A    between atoms: _76  and  _79
REMARK   34  A    between atoms: _79  and  _80
REMARK   35  A    between atoms: _83  and  _85
REMARK   36  A    between atoms: _85  and  _86
REMARK   37  A    between atoms: _85  and  _88
REMARK   38  A    between atoms: _88  and  _89
REMARK   39  A    between atoms: _92  and  _94
REMARK   40  A    between atoms: _94  and  _95
REMARK   41  A    between atoms: _94  and  _97
REMARK   42  A    between atoms: _97  and  _98
REMARK   43  A    between atoms: _101  and  _103
REMARK   44  A    between atoms: _103  and  _104
REMARK   45  A    between atoms: _103  and  _106
REMARK   46  A    between atoms: _109  and  _111
REMARK   47  A    between atoms: _111  and  _112
REMARK   48  A    between atoms: _115  and  _117
REMARK   49  A    between atoms: _117  and  _118
REMARK   50  A    between atoms: _121  and  _123
REMARK   51  A    between atoms: _123  and  _124
REMARK   52  A    between atoms: _123  and  _126
REMARK   53  A    between atoms: _126  and  _127
REMARK   54  A    between atoms: _133  and  _134
REMARK   55  A    between atoms: _139  and  _141
REMARK   56  A    between atoms: _141  and  _142
REMARK   57  A    between atoms: _141  and  _144
REMARK   58  A    between atoms: _144  and  _145
REMARK   59  A    between atoms: _145  and  _146
REMARK   60  A    between atoms: _151  and  _153
REMARK   61  A    between atoms: _153  and  _154
REMARK   62  A    between atoms: _153  and  _156
REMARK   63  A    between atoms: _156  and  _157
REMARK   64  A    between atoms: _160  and  _162
REMARK   65  A    between atoms: _162  and  _163
REMARK   66  A    between atoms: _162  and  _165
REMARK   67  A    between atoms: _165  and  _166
REMARK   68  A    between atoms: _171  and  _173
REMARK   69  A    between atoms: _173  and  _174
REMARK   70  A    between atoms: _176  and  _178
REMARK   71  A    between atoms: _178  and  _179
REMARK   72  A    between atoms: _178  and  _181
REMARK   73  A    between atoms: _181  and  _182
REMARK   74  A    between atoms: _185  and  _187
REMARK   75  A    between atoms: _187  and  _188
REMARK   76  A    between atoms: _190  and  _192
REMARK   77  A    between atoms: _192  and  _193
REMARK   78  A    between atoms: _195  and  _197
REMARK   79  A    between atoms: _197  and  _198
REMARK   80  A    between atoms: _200  and  _202
REMARK   81  A    between atoms: _202  and  _203
REMARK   82  A    between atoms: _202  and  _205
REMARK   83  A    between atoms: _205  and  _206
REMARK   84  A    between atoms: _209  and  _211
REMARK   85  A    between atoms: _211  and  _212
REMARK   86  A    between atoms: _211  and  _214
REMARK   87  A    between atoms: _217  and  _219
REMARK   88  A    between atoms: _219  and  _220
REMARK   89  A    between atoms: _219  and  _222
REMARK   90  A    between atoms: _222  and  _223
REMARK   91  A    between atoms: _226  and  _228
REMARK   92  A    between atoms: _228  and  _229
REMARK   93  A    between atoms: _232  and  _234
REMARK   94  A    between atoms: _234  and  _235
REMARK   95  A    between atoms: _234  and  _237
REMARK   96  A    between atoms: _237  and  _238
REMARK   97  A    between atoms: _242  and  _243
REMARK   98  A    between atoms: _248  and  _250
REMARK   99  A    between atoms: _250  and  _251
REMARK  100  A    between atoms: _250  and  _253
REMARK  101  A    between atoms: _256  and  _258
REMARK  102  A    between atoms: _258  and  _259
REMARK  103  A    between atoms: _258  and  _261
REMARK  104  A    between atoms: _261  and  _262
REMARK  105  A    between atoms: _267  and  _269
REMARK  106  A    between atoms: _269  and  _270
REMARK  107  A    between atoms: _269  and  _272
REMARK  108  A    between atoms: _272  and  _273
REMARK  109  A    between atoms: _276  and  _278
REMARK  110  A    between atoms: _278  and  _279
REMARK  111  A    between atoms: _278  and  _281
REMARK  112  A    between atoms: _281  and  _282
REMARK  113  A    between atoms: _285  and  _287
REMARK  114  A    between atoms: _287  and  _288
REMARK  115  A    between atoms: _290  and  _292
REMARK  116  A    between atoms: _292  and  _293
REMARK  117  A    between atoms: _292  and  _295
REMARK  118  A    between atoms: _295  and  _296
REMARK  119  A    between atoms: _296  and  _297
REMARK  120  A    between atoms: _297  and  _298
REMARK  121  A    between atoms: _307  and  _309
REMARK  122  A    between atoms: _309  and  _310
REMARK  123  A    between atoms: _309  and  _312
REMARK  124  A    between atoms: _312  and  _313
REMARK  125  A    between atoms: _316  and  _318
REMARK  126  A    between atoms: _318  and  _319
REMARK  127  A    between atoms: _318  and  _321
REMARK  128  A    between atoms: _321  and  _322
REMARK  129  A    between atoms: _327  and  _329
REMARK  130  A    between atoms: _329  and  _330
REMARK  131  A    between atoms: _329  and  _332
REMARK  132  A    between atoms: _332  and  _333
REMARK  133  A    between atoms: _333  and  _334
REMARK  134  A    between atoms: _334  and  _335
REMARK  135  A    between atoms: _344  and  _346
REMARK  136  A    between atoms: _346  and  _347
REMARK  137  A    between atoms: _346  and  _349
REMARK  138  A    between atoms: _349  and  _350
REMARK  139  A    between atoms: _353  and  _355
REMARK  140  A    between atoms: _355  and  _356
REMARK  141  A    between atoms: _355  and  _358
REMARK  142  A    between atoms: _358  and  _359
REMARK  143  A    between atoms: _362  and  _364
REMARK  144  A    between atoms: _364  and  _365
REMARK  145  A    between atoms: _364  and  _367
REMARK  146  A    between atoms: _367  and  _368
REMARK  147  A    between atoms: _371  and  _373
REMARK  148  A    between atoms: _373  and  _374
REMARK  149  A    between atoms: _373  and  _376
REMARK  150  A    between atoms: _376  and  _377
REMARK  151  A    between atoms: _380  and  _382
REMARK  152  A    between atoms: _382  and  _383
REMARK  153  A    between atoms: _382  and  _385
REMARK  154  A    between atoms: _385  and  _386
REMARK  155  A    between atoms: _389  and  _391
REMARK  156  A    between atoms: _391  and  _392
REMARK  157  A    between atoms: _394  and  _396
REMARK  158  A    between atoms: _396  and  _397
REMARK  159  A    between atoms: _400  and  _402
REMARK  160  A    between atoms: _402  and  _403
REMARK  161  A    between atoms: _402  and  _405
REMARK  162  A    between atoms: _405  and  _406
REMARK  163  A    between atoms: _409  and  _411
REMARK  164  A    between atoms: _411  and  _412
REMARK  165  A    between atoms: _411  and  _414
REMARK  166  A    between atoms: _414  and  _415
REMARK  167  A    between atoms: _418  and  _420
REMARK  168  A    between atoms: _420  and  _421
REMARK  169  A    between atoms: _420  and  _423
REMARK  170  A    between atoms: _423  and  _424
REMARK  171  A    between atoms: _427  and  _429
REMARK  172  A    between atoms: _429  and  _430
REMARK  173  A    between atoms: _429  and  _432
REMARK  174  A    between atoms: _435  and  _437
REMARK  175  A    between atoms: _437  and  _438
REMARK  176  A    between atoms: _437  and  _440
REMARK  177  A    between atoms: _440  and  _441
REMARK  178  A    between atoms: _441  and  _442
REMARK  179  A    between atoms: _447  and  _449
REMARK  180  A    between atoms: _449  and  _450
REMARK  181  A    between atoms: _449  and  _452
REMARK  182  A    between atoms: _452  and  _453
REMARK  183  A    between atoms: _456  and  _458
REMARK  184  A    between atoms: _458  and  _459
REMARK  185  A    between atoms: _458  and  _461
REMARK  186  A    between atoms: _461  and  _462
REMARK  187  A    between atoms: _467  and  _469
REMARK  188  A    between atoms: _469  and  _470
REMARK  189  A    between atoms: _472  and  _474
REMARK  190  A    between atoms: _474  and  _475
REMARK  191  A    between atoms: _474  and  _477
REMARK  192  A    between atoms: _477  and  _478
REMARK  193  A    between atoms: _481  and  _483
REMARK  194  A    between atoms: _483  and  _484
REMARK  195  A    between atoms: _486  and  _488
REMARK  196  A    between atoms: _488  and  _489
REMARK  197  A    between atoms: _491  and  _493
REMARK  198  A    between atoms: _493  and  _494
REMARK  199  A    between atoms: _493  and  _496
REMARK  200  A    between atoms: _496  and  _497
REMARK  201  A    between atoms: _500  and  _502
REMARK  202  A    between atoms: _502  and  _503
REMARK  203  A    between atoms: _502  and  _505
REMARK  204  A    between atoms: _505  and  _506
REMARK  205  A    between atoms: _510  and  _511
REMARK  206  A    between atoms: _516  and  _518
REMARK  207  A    between atoms: _518  and  _519
REMARK  208  A    between atoms: _518  and  _521
REMARK  209  A    between atoms: _524  and  _526
REMARK  210  A    between atoms: _526  and  _527
REMARK  211  A    between atoms: _526  and  _529
REMARK  212  A    between atoms: _529  and  _530
REMARK  213  A    between atoms: _535  and  _537
REMARK  214  A    between atoms: _537  and  _538
REMARK  215  A    between atoms: _537  and  _540
REMARK  216  A    between atoms: _540  and  _541
REMARK  217  A    between atoms: _544  and  _546
REMARK  218  A    between atoms: _546  and  _547
REMARK  219  A    between atoms: _546  and  _549
REMARK  220  A    between atoms: _549  and  _550
REMARK  221  A    between atoms: _553  and  _555
REMARK  222  A    between atoms: _555  and  _556
REMARK  223  A    between atoms: _558  and  _560
REMARK  224  A    between atoms: _560  and  _561
REMARK  225  A    between atoms: _560  and  _563
REMARK  226  A    between atoms: _563  and  _564
REMARK  227  A    between atoms: _564  and  _565
REMARK  228  A    between atoms: _565  and  _566
REMARK                            x       y       z     vdW  Elec       q    Type
REMARK                         _______ _______ _______ _____ _____    ______ ____
ROOT
ATOM      1  O   HOH     1       9.916  18.279  34.831  0.00  0.00    +0.000 OA
ENDROOT
TORSDOF 0
REMARK  Name = ../refined-set-2016/1bai/1bai_pocket.pdb
REMARK  228 active torsions:
REMARK  status: ('A' for Active; 'I' for Inactive)
REMARK    1  A    between atoms: _1  and  _3
REMARK    2  A    between atoms: _3  and  _4
REMARK    3  A    between atoms: _3  and  _6
REMARK    4  A    between atoms: _6  and  _7
REMARK    5  A    between atoms: _7  and  _8
REMARK    6  A    between atoms: _8  and  _9
REMARK    7  A    between atoms: _18  and  _20
REMARK    8  A    between atoms: _20  and  _21
REMARK    9  A    between atoms: _20  and  _23
REMARK   10  A    between atoms: _23  and  _24
REMARK   11  A    between atoms: _27  and  _29
REMARK   12  A    between atoms: _29  and  _30
REMARK   13  A    between atoms: _29  and  _32
REMARK   14  A    between atoms: _32  and  _33
REMARK   15  A    between atoms: _36  and  _38
REMARK   16  A    between atoms: _38  and  _39
REMARK   17  A    between atoms: _38  and  _41
REMARK   18  A    between atoms: _41  and  _42
REMARK   19  A    between atoms: _45  and  _47
REMARK   20  A    between atoms: _47  and  _48
REMARK   21  A    between atoms: _47  and  _50
REMARK   22  A    between atoms: _50  and  _51
REMARK   23  A    between atoms: _54  and  _56
REMARK   24  A    between atoms: _56  and  _57
REMARK   25  A    between atoms: _56  and  _59
REMARK   26  A    between atoms: _59  and  _60
REMARK   27  A    between atoms: _63  and  _65
REMARK   28  A    between atoms: _65  and  _66
REMARK   29  A    between atoms: _68  and  _70
REMARK   30  A    between atoms: _70  and  _71
REMARK   31  A    between atoms: _74  and  _76
REMARK   32  A    between atoms: _76  and  _77
REMARK   33  A    between atoms: _76  and  _79
REMARK   34  A    between atoms: _79  and  _80
REMARK   35  A    between atoms: _83  and  _85
REMARK   36  A    between atoms: _85  and  _86
REMARK   37  A    between atoms: _85  and  _88
REMARK   38  A    between atoms: _88  and  _89
REMARK   39  A    between atoms: _92  and  _94
REMARK   40  A    between atoms: _94  and  _95
REMARK   41  A    between atoms: _94  and  _97
REMARK   42  A    between atoms: _97  and  _98
REMARK   43  A    between atoms: _101  and  _103
REMARK   44  A    between atoms: _103  and  _104
REMARK   45  A    between atoms: _103  and  _106
REMARK   46  A    between atoms: _109  and  _111
REMARK   47  A    between atoms: _111  and  _112
REMARK   48  A    between atoms: _115  and  _117
REMARK   49  A    between atoms: _117  and  _118
REMARK   50  A    between atoms: _121  and  _123
REMARK   51  A    between atoms: _123  and  _124
REMARK   52  A    between atoms: _123  and  _126
REMARK   53  A    between atoms: _126  and  _127
REMARK   54  A    between atoms: _133  and  _134
REMARK   55  A    between atoms: _139  and  _141
REMARK   56  A    between atoms: _141  and  _142
REMARK   57  A    between atoms: _141  and  _144
REMARK   58  A    between atoms: _144  and  _145
REMARK   59  A    between atoms: _145  and  _146
REMARK   60  A    between atoms: _151  and  _153
REMARK   61  A    between atoms: _153  and  _154
REMARK   62  A    between atoms: _153  and  _156
REMARK   63  A    between atoms: _156  and  _157
REMARK   64  A    between atoms: _160  and  _162
REMARK   65  A    between atoms: _162  and  _163
REMARK   66  A    between atoms: _162  and  _165
REMARK   67  A    between atoms: _165  and  _166
REMARK   68  A    between atoms: _171  and  _173
REMARK   69  A    between atoms: _173  and  _174
REMARK   70  A    between atoms: _176  and  _178
REMARK   71  A    between atoms: _178  and  _179
REMARK   72  A    between atoms: _178  and  _181
REMARK   73  A    between atoms: _181  and  _182
REMARK   74  A    between atoms: _185  and  _187
REMARK   75  A    between atoms: _187  and  _188
REMARK   76  A    between atoms: _190  and  _192
REMARK   77  A    between atoms: _192  and  _193
REMARK   78  A    between atoms: _195  and  _197
REMARK   79  A    between atoms: _197  and  _198
REMARK   80  A    between atoms: _200  and  _202
REMARK   81  A    between atoms: _202  and  _203
REMARK   82  A    between atoms: _202  and  _205
REMARK   83  A    between atoms: _205  and  _206
REMARK   84  A    between atoms: _209  and  _211
REMARK   85  A    between atoms: _211  and  _212
REMARK   86  A    between atoms: _211  and  _214
REMARK   87  A    between atoms: _217  and  _219
REMARK   88  A    between atoms: _219  and  _220
REMARK   89  A    between atoms: _219  and  _222
REMARK   90  A    between atoms: _222  and  _223
REMARK   91  A    between atoms: _226  and  _228
REMARK   92  A    between atoms: _228  and  _229
REMARK   93  A    between atoms: _232  and  _234
REMARK   94  A    between atoms: _234  and  _235
REMARK   95  A    between atoms: _234  and  _237
REMARK   96  A    between atoms: _237  and  _238
REMARK   97  A    between atoms: _242  and  _243
REMARK   98  A    between atoms: _248  and  _250
REMARK   99  A    between atoms: _250  and  _251
REMARK  100  A    between atoms: _250  and  _253
REMARK  101  A    between atoms: _256  and  _258
REMARK  102  A    between atoms: _258  and  _259
REMARK  103  A    between atoms: _258  and  _261
REMARK  104  A    between atoms: _261  and  _262
REMARK  105  A    between atoms: _267  and  _269
REMARK  106  A    between atoms: _269  and  _270
REMARK  107  A    between atoms: _269  and  _272
REMARK  108  A    between atoms: _272  and  _273
REMARK  109  A    between atoms: _276  and  _278
REMARK  110  A    between atoms: _278  and  _279
REMARK  111  A    between atoms: _278  and  _281
REMARK  112  A    between atoms: _281  and  _282
REMARK  113  A    between atoms: _285  and  _287
REMARK  114  A    between atoms: _287  and  _288
REMARK  115  A    between atoms: _290  and  _292
REMARK  116  A    between atoms: _292  and  _293
REMARK  117  A    between atoms: _292  and  _295
REMARK  118  A    between atoms: _295  and  _296
REMARK  119  A    between atoms: _296  and  _297
REMARK  120  A    between atoms: _297  and  _298
REMARK  121  A    between atoms: _307  and  _309
REMARK  122  A    between atoms: _309  and  _310
REMARK  123  A    between atoms: _309  and  _312
REMARK  124  A    between atoms: _312  and  _313
REMARK  125  A    between atoms: _316  and  _318
REMARK  126  A    between atoms: _318  and  _319
REMARK  127  A    between atoms: _318  and  _321
REMARK  128  A    between atoms: _321  and  _322
REMARK  129  A    between atoms: _327  and  _329
REMARK  130  A    between atoms: _329  and  _330
REMARK  131  A    between atoms: _329  and  _332
REMARK  132  A    between atoms: _332  and  _333
REMARK  133  A    between atoms: _333  and  _334
REMARK  134  A    between atoms: _334  and  _335
REMARK  135  A    between atoms: _344  and  _346
REMARK  136  A    between atoms: _346  and  _347
REMARK  137  A    between atoms: _346  and  _349
REMARK  138  A    between atoms: _349  and  _350
REMARK  139  A    between atoms: _353  and  _355
REMARK  140  A    between atoms: _355  and  _356
REMARK  141  A    between atoms: _355  and  _358
REMARK  142  A    between atoms: _358  and  _359
REMARK  143  A    between atoms: _362  and  _364
REMARK  144  A    between atoms: _364  and  _365
REMARK  145  A    between atoms: _364  and  _367
REMARK  146  A    between atoms: _367  and  _368
REMARK  147  A    between atoms: _371  and  _373
REMARK  148  A    between atoms: _373  and  _374
REMARK  149  A    between atoms: _373  and  _376
REMARK  150  A    between atoms: _376  and  _377
REMARK  151  A    between atoms: _380  and  _382
REMARK  152  A    between atoms: _382  and  _383
REMARK  153  A    between atoms: _382  and  _385
REMARK  154  A    between atoms: _385  and  _386
REMARK  155  A    between atoms: _389  and  _391
REMARK  156  A    between atoms: _391  and  _392
REMARK  157  A    between atoms: _394  and  _396
REMARK  158  A    between atoms: _396  and  _397
REMARK  159  A    between atoms: _400  and  _402
REMARK  160  A    between atoms: _402  and  _403
REMARK  161  A    between atoms: _402  and  _405
REMARK  162  A    between atoms: _405  and  _406
REMARK  163  A    between atoms: _409  and  _411
REMARK  164  A    between atoms: _411  and  _412
REMARK  165  A    between atoms: _411  and  _414
REMARK  166  A    between atoms: _414  and  _415
REMARK  167  A    between atoms: _418  and  _420
REMARK  168  A    between atoms: _420  and  _421
REMARK  169  A    between atoms: _420  and  _423
REMARK  170  A    between atoms: _423  and  _424
REMARK  171  A    between atoms: _427  and  _429
REMARK  172  A    between atoms: _429  and  _430
REMARK  173  A    between atoms: _429  and  _432
REMARK  174  A    between atoms: _435  and  _437
REMARK  175  A    between atoms: _437  and  _438
REMARK  176  A    between atoms: _437  and  _440
REMARK  177  A    between atoms: _440  and  _441
REMARK  178  A    between atoms: _441  and  _442
REMARK  179  A    between atoms: _447  and  _449
REMARK  180  A    between atoms: _449  and  _450
REMARK  181  A    between atoms: _449  and  _452
REMARK  182  A    between atoms: _452  and  _453
REMARK  183  A    between atoms: _456  and  _458
REMARK  184  A    between atoms: _458  and  _459
REMARK  185  A    between atoms: _458  and  _461
REMARK  186  A    between atoms: _461  and  _462
REMARK  187  A    between atoms: _467  and  _469
REMARK  188  A    between atoms: _469  and  _470
REMARK  189  A    between atoms: _472  and  _474
REMARK  190  A    between atoms: _474  and  _475
REMARK  191  A    between atoms: _474  and  _477
REMARK  192  A    between atoms: _477  and  _478
REMARK  193  A    between atoms: _481  and  _483
REMARK  194  A    between atoms: _483  and  _484
REMARK  195  A    between atoms: _486  and  _488
REMARK  196  A    between atoms: _488  and  _489
REMARK  197  A    between atoms: _491  and  _493
REMARK  198  A    between atoms: _493  and  _494
REMARK  199  A    between atoms: _493  and  _496
REMARK  200  A    between atoms: _496  and  _497
REMARK  201  A    between atoms: _500  and  _502
REMARK  202  A    between atoms: _502  and  _503
REMARK  203  A    between atoms: _502  and  _505
REMARK  204  A    between atoms: _505  and  _506
REMARK  205  A    between atoms: _510  and  _511
REMARK  206  A    between atoms: _516  and  _518
REMARK  207  A    between atoms: _518  and  _519
REMARK  208  A    between atoms: _518  and  _521
REMARK  209  A    between atoms: _524  and  _526
REMARK  210  A    between atoms: _526  and  _527
REMARK  211  A    between atoms: _526  and  _529
REMARK  212  A    between atoms: _529  and  _530
REMARK  213  A    between atoms: _535  and  _537
REMARK  214  A    between atoms: _537  and  _538
REMARK  215  A    between atoms: _537  and  _540
REMARK  216  A    between atoms: _540  and  _541
REMARK  217  A    between atoms: _544  and  _546
REMARK  218  A    between atoms: _546  and  _547
REMARK  219  A    between atoms: _546  and  _549
REMARK  220  A    between atoms: _549  and  _550
REMARK  221  A    between atoms: _553  and  _555
REMARK  222  A    between atoms: _555  and  _556
REMARK  223  A    between atoms: _558  and  _560
REMARK  224  A    between atoms: _560  and  _561
REMARK  225  A    between atoms: _560  and  _563
REMARK  226  A    between atoms: _563  and  _564
REMARK  227  A    between atoms: _564  and  _565
REMARK  228  A    between atoms: _565  and  _566
REMARK                            x       y       z     vdW  Elec       q    Type
REMARK                         _______ _______ _______ _____ _____    ______ ____
ROOT
ATOM      1  O   HOH     1     -13.255  20.851  30.983  0.00  0.00    +0.000 OA
ENDROOT
TORSDOF 0
REMARK  Name = ../refined-set-2016/1bai/1bai_pocket.pdb
REMARK  228 active torsions:
REMARK  status: ('A' for Active; 'I' for Inactive)
REMARK    1  A    between atoms: _1  and  _3
REMARK    2  A    between atoms: _3  and  _4
REMARK    3  A    between atoms: _3  and  _6
REMARK    4  A    between atoms: _6  and  _7
REMARK    5  A    between atoms: _7  and  _8
REMARK    6  A    between atoms: _8  and  _9
REMARK    7  A    between atoms: _18  and  _20
REMARK    8  A    between atoms: _20  and  _21
REMARK    9  A    between atoms: _20  and  _23
REMARK   10  A    between atoms: _23  and  _24
REMARK   11  A    between atoms: _27  and  _29
REMARK   12  A    between atoms: _29  and  _30
REMARK   13  A    between atoms: _29  and  _32
REMARK   14  A    between atoms: _32  and  _33
REMARK   15  A    between atoms: _36  and  _38
REMARK   16  A    between atoms: _38  and  _39
REMARK   17  A    between atoms: _38  and  _41
REMARK   18  A    between atoms: _41  and  _42
REMARK   19  A    between atoms: _45  and  _47
REMARK   20  A    between atoms: _47  and  _48
REMARK   21  A    between atoms: _47  and  _50
REMARK   22  A    between atoms: _50  and  _51
REMARK   23  A    between atoms: _54  and  _56
REMARK   24  A    between atoms: _56  and  _57
REMARK   25  A    between atoms: _56  and  _59
REMARK   26  A    between atoms: _59  and  _60
REMARK   27  A    between atoms: _63  and  _65
REMARK   28  A    between atoms: _65  and  _66
REMARK   29  A    between atoms: _68  and  _70
REMARK   30  A    between atoms: _70  and  _71
REMARK   31  A    between atoms: _74  and  _76
REMARK   32  A    between atoms: _76  and  _77
REMARK   33  A    between atoms: _76  and  _79
REMARK   34  A    between atoms: _79  and  _80
REMARK   35  A    between atoms: _83  and  _85
REMARK   36  A    between atoms: _85  and  _86
REMARK   37  A    between atoms: _85  and  _88
REMARK   38  A    between atoms: _88  and  _89
REMARK   39  A    between atoms: _92  and  _94
REMARK   40  A    between atoms: _94  and  _95
REMARK   41  A    between atoms: _94  and  _97
REMARK   42  A    between atoms: _97  and  _98
REMARK   43  A    between atoms: _101  and  _103
REMARK   44  A    between atoms: _103  and  _104
REMARK   45  A    between atoms: _103  and  _106
REMARK   46  A    between atoms: _109  and  _111
REMARK   47  A    between atoms: _111  and  _112
REMARK   48  A    between atoms: _115  and  _117
REMARK   49  A    between atoms: _117  and  _118
REMARK   50  A    between atoms: _121  and  _123
REMARK   51  A    between atoms: _123  and  _124
REMARK   52  A    between atoms: _123  and  _126
REMARK   53  A    between atoms: _126  and  _127
REMARK   54  A    between atoms: _133  and  _134
REMARK   55  A    between atoms: _139  and  _141
REMARK   56  A    between atoms: _141  and  _142
REMARK   57  A    between atoms: _141  and  _144
REMARK   58  A    between atoms: _144  and  _145
REMARK   59  A    between atoms: _145  and  _146
REMARK   60  A    between atoms: _151  and  _153
REMARK   61  A    between atoms: _153  and  _154
REMARK   62  A    between atoms: _153  and  _156
REMARK   63  A    between atoms: _156  and  _157
REMARK   64  A    between atoms: _160  and  _162
REMARK   65  A    between atoms: _162  and  _163
REMARK   66  A    between atoms: _162  and  _165
REMARK   67  A    between atoms: _165  and  _166
REMARK   68  A    between atoms: _171  and  _173
REMARK   69  A    between atoms: _173  and  _174
REMARK   70  A    between atoms: _176  and  _178
REMARK   71  A    between atoms: _178  and  _179
REMARK   72  A    between atoms: _178  and  _181
REMARK   73  A    between atoms: _181  and  _182
REMARK   74  A    between atoms: _185  and  _187
REMARK   75  A    between atoms: _187  and  _188
REMARK   76  A    between atoms: _190  and  _192
REMARK   77  A    between atoms: _192  and  _193
REMARK   78  A    between atoms: _195  and  _197
REMARK   79  A    between atoms: _197  and  _198
REMARK   80  A    between atoms: _200  and  _202
REMARK   81  A    between atoms: _202  and  _203
REMARK   82  A    between atoms: _202  and  _205
REMARK   83  A    between atoms: _205  and  _206
REMARK   84  A    between atoms: _209  and  _211
REMARK   85  A    between atoms: _211  and  _212
REMARK   86  A    between atoms: _211  and  _214
REMARK   87  A    between atoms: _217  and  _219
REMARK   88  A    between atoms: _219  and  _220
REMARK   89  A    between atoms: _219  and  _222
REMARK   90  A    between atoms: _222  and  _223
REMARK   91  A    between atoms: _226  and  _228
REMARK   92  A    between atoms: _228  and  _229
REMARK   93  A    between atoms: _232  and  _234
REMARK   94  A    between atoms: _234  and  _235
REMARK   95  A    between atoms: _234  and  _237
REMARK   96  A    between atoms: _237  and  _238
REMARK   97  A    between atoms: _242  and  _243
REMARK   98  A    between atoms: _248  and  _250
REMARK   99  A    between atoms: _250  and  _251
REMARK  100  A    between atoms: _250  and  _253
REMARK  101  A    between atoms: _256  and  _258
REMARK  102  A    between atoms: _258  and  _259
REMARK  103  A    between atoms: _258  and  _261
REMARK  104  A    between atoms: _261  and  _262
REMARK  105  A    between atoms: _267  and  _269
REMARK  106  A    between atoms: _269  and  _270
REMARK  107  A    between atoms: _269  and  _272
REMARK  108  A    between atoms: _272  and  _273
REMARK  109  A    between atoms: _276  and  _278
REMARK  110  A    between atoms: _278  and  _279
REMARK  111  A    between atoms: _278  and  _281
REMARK  112  A    between atoms: _281  and  _282
REMARK  113  A    between atoms: _285  and  _287
REMARK  114  A    between atoms: _287  and  _288
REMARK  115  A    between atoms: _290  and  _292
REMARK  116  A    between atoms: _292  and  _293
REMARK  117  A    between atoms: _292  and  _295
REMARK  118  A    between atoms: _295  and  _296
REMARK  119  A    between atoms: _296  and  _297
REMARK  120  A    between atoms: _297  and  _298
REMARK  121  A    between atoms: _307  and  _309
REMARK  122  A    between atoms: _309  and  _310
REMARK  123  A    between atoms: _309  and  _312
REMARK  124  A    between atoms: _312  and  _313
REMARK  125  A    between atoms: _316  and  _318
REMARK  126  A    between atoms: _318  and  _319
REMARK  127  A    between atoms: _318  and  _321
REMARK  128  A    between atoms: _321  and  _322
REMARK  129  A    between atoms: _327  and  _329
REMARK  130  A    between atoms: _329  and  _330
REMARK  131  A    between atoms: _329  and  _332
REMARK  132  A    between atoms: _332  and  _333
REMARK  133  A    between atoms: _333  and  _334
REMARK  134  A    between atoms: _334  and  _335
REMARK  135  A    between atoms: _344  and  _346
REMARK  136  A    between atoms: _346  and  _347
REMARK  137  A    between atoms: _346  and  _349
REMARK  138  A    between atoms: _349  and  _350
REMARK  139  A    between atoms: _353  and  _355
REMARK  140  A    between atoms: _355  and  _356
REMARK  141  A    between atoms: _355  and  _358
REMARK  142  A    between atoms: _358  and  _359
REMARK  143  A    between atoms: _362  and  _364
REMARK  144  A    between atoms: _364  and  _365
REMARK  145  A    between atoms: _364  and  _367
REMARK  146  A    between atoms: _367  and  _368
REMARK  147  A    between atoms: _371  and  _373
REMARK  148  A    between atoms: _373  and  _374
REMARK  149  A    between atoms: _373  and  _376
REMARK  150  A    between atoms: _376  and  _377
REMARK  151  A    between atoms: _380  and  _382
REMARK  152  A    between atoms: _382  and  _383
REMARK  153  A    between atoms: _382  and  _385
REMARK  154  A    between atoms: _385  and  _386
REMARK  155  A    between atoms: _389  and  _391
REMARK  156  A    between atoms: _391  and  _392
REMARK  157  A    between atoms: _394  and  _396
REMARK  158  A    between atoms: _396  and  _397
REMARK  159  A    between atoms: _400  and  _402
REMARK  160  A    between atoms: _402  and  _403
REMARK  161  A    between atoms: _402  and  _405
REMARK  162  A    between atoms: _405  and  _406
REMARK  163  A    between atoms: _409  and  _411
REMARK  164  A    between atoms: _411  and  _412
REMARK  165  A    between atoms: _411  and  _414
REMARK  166  A    between atoms: _414  and  _415
REMARK  167  A    between atoms: _418  and  _420
REMARK  168  A    between atoms: _420  and  _421
REMARK  169  A    between atoms: _420  and  _423
REMARK  170  A    between atoms: _423  and  _424
REMARK  171  A    between atoms: _427  and  _429
REMARK  172  A    between atoms: _429  and  _430
REMARK  173  A    between atoms: _429  and  _432
REMARK  174  A    between atoms: _435  and  _437
REMARK  175  A    between atoms: _437  and  _438
REMARK  176  A    between atoms: _437  and  _440
REMARK  177  A    between atoms: _440  and  _441
REMARK  178  A    between atoms: _441  and  _442
REMARK  179  A    between atoms: _447  and  _449
REMARK  180  A    between atoms: _449  and  _450
REMARK  181  A    between atoms: _449  and  _452
REMARK  182  A    between atoms: _452  and  _453
REMARK  183  A    between atoms: _456  and  _458
REMARK  184  A    between atoms: _458  and  _459
REMARK  185  A    between atoms: _458  and  _461
REMARK  186  A    between atoms: _461  and  _462
REMARK  187  A    between atoms: _467  and  _469
REMARK  188  A    between atoms: _469  and  _470
REMARK  189  A    between atoms: _472  and  _474
REMARK  190  A    between atoms: _474  and  _475
REMARK  191  A    between atoms: _474  and  _477
REMARK  192  A    between atoms: _477  and  _478
REMARK  193  A    between atoms: _481  and  _483
REMARK  194  A    between atoms: _483  and  _484
REMARK  195  A    between atoms: _486  and  _488
REMARK  196  A    between atoms: _488  and  _489
REMARK  197  A    between atoms: _491  and  _493
REMARK  198  A    between atoms: _493  and  _494
REMARK  199  A    between atoms: _493  and  _496
REMARK  200  A    between atoms: _496  and  _497
REMARK  201  A    between atoms: _500  and  _502
REMARK  202  A    between atoms: _502  and  _503
REMARK  203  A    between atoms: _502  and  _505
REMARK  204  A    between atoms: _505  and  _506
REMARK  205  A    between atoms: _510  and  _511
REMARK  206  A    between atoms: _516  and  _518
REMARK  207  A    between atoms: _518  and  _519
REMARK  208  A    between atoms: _518  and  _521
REMARK  209  A    between atoms: _524  and  _526
REMARK  210  A    between atoms: _526  and  _527
REMARK  211  A    between atoms: _526  and  _529
REMARK  212  A    between atoms: _529  and  _530
REMARK  213  A    between atoms: _535  and  _537
REMARK  214  A    between atoms: _537  and  _538
REMARK  215  A    between atoms: _537  and  _540
REMARK  216  A    between atoms: _540  and  _541
REMARK  217  A    between atoms: _544  and  _546
REMARK  218  A    between atoms: _546  and  _547
REMARK  219  A    between atoms: _546  and  _549
REMARK  220  A    between atoms: _549  and  _550
REMARK  221  A    between atoms: _553  and  _555
REMARK  222  A    between atoms: _555  and  _556
REMARK  223  A    between atoms: _558  and  _560
REMARK  224  A    between atoms: _560  and  _561
REMARK  225  A    between atoms: _560  and  _563
REMARK  226  A    between atoms: _563  and  _564
REMARK  227  A    between atoms: _564  and  _565
REMARK  228  A    between atoms: _565  and  _566
REMARK                            x       y       z     vdW  Elec       q    Type
REMARK                         _______ _______ _______ _____ _____    ______ ____
ROOT
ATOM      1  O   HOH     1       8.524  17.928  46.611  0.00  0.00    +0.000 OA
ENDROOT
TORSDOF 0
REMARK  Name = ../refined-set-2016/1bai/1bai_pocket.pdb
REMARK  228 active torsions:
REMARK  status: ('A' for Active; 'I' for Inactive)
REMARK    1  A    between atoms: _1  and  _3
REMARK    2  A    between atoms: _3  and  _4
REMARK    3  A    between atoms: _3  and  _6
REMARK    4  A    between atoms: _6  and  _7
REMARK    5  A    between atoms: _7  and  _8
REMARK    6  A    between atoms: _8  and  _9
REMARK    7  A    between atoms: _18  and  _20
REMARK    8  A    between atoms: _20  and  _21
REMARK    9  A    between atoms: _20  and  _23
REMARK   10  A    between atoms: _23  and  _24
REMARK   11  A    between atoms: _27  and  _29
REMARK   12  A    between atoms: _29  and  _30
REMARK   13  A    between atoms: _29  and  _32
REMARK   14  A    between atoms: _32  and  _33
REMARK   15  A    between atoms: _36  and  _38
REMARK   16  A    between atoms: _38  and  _39
REMARK   17  A    between atoms: _38  and  _41
REMARK   18  A    between atoms: _41  and  _42
REMARK   19  A    between atoms: _45  and  _47
REMARK   20  A    between atoms: _47  and  _48
REMARK   21  A    between atoms: _47  and  _50
REMARK   22  A    between atoms: _50  and  _51
REMARK   23  A    between atoms: _54  and  _56
REMARK   24  A    between atoms: _56  and  _57
REMARK   25  A    between atoms: _56  and  _59
REMARK   26  A    between atoms: _59  and  _60
REMARK   27  A    between atoms: _63  and  _65
REMARK   28  A    between atoms: _65  and  _66
REMARK   29  A    between atoms: _68  and  _70
REMARK   30  A    between atoms: _70  and  _71
REMARK   31  A    between atoms: _74  and  _76
REMARK   32  A    between atoms: _76  and  _77
REMARK   33  A    between atoms: _76  and  _79
REMARK   34  A    between atoms: _79  and  _80
REMARK   35  A    between atoms: _83  and  _85
REMARK   36  A    between atoms: _85  and  _86
REMARK   37  A    between atoms: _85  and  _88
REMARK   38  A    between atoms: _88  and  _89
REMARK   39  A    between atoms: _92  and  _94
REMARK   40  A    between atoms: _94  and  _95
REMARK   41  A    between atoms: _94  and  _97
REMARK   42  A    between atoms: _97  and  _98
REMARK   43  A    between atoms: _101  and  _103
REMARK   44  A    between atoms: _103  and  _104
REMARK   45  A    between atoms: _103  and  _106
REMARK   46  A    between atoms: _109  and  _111
REMARK   47  A    between atoms: _111  and  _112
REMARK   48  A    between atoms: _115  and  _117
REMARK   49  A    between atoms: _117  and  _118
REMARK   50  A    between atoms: _121  and  _123
REMARK   51  A    between atoms: _123  and  _124
REMARK   52  A    between atoms: _123  and  _126
REMARK   53  A    between atoms: _126  and  _127
REMARK   54  A    between atoms: _133  and  _134
REMARK   55  A    between atoms: _139  and  _141
REMARK   56  A    between atoms: _141  and  _142
REMARK   57  A    between atoms: _141  and  _144
REMARK   58  A    between atoms: _144  and  _145
REMARK   59  A    between atoms: _145  and  _146
REMARK   60  A    between atoms: _151  and  _153
REMARK   61  A    between atoms: _153  and  _154
REMARK   62  A    between atoms: _153  and  _156
REMARK   63  A    between atoms: _156  and  _157
REMARK   64  A    between atoms: _160  and  _162
REMARK   65  A    between atoms: _162  and  _163
REMARK   66  A    between atoms: _162  and  _165
REMARK   67  A    between atoms: _165  and  _166
REMARK   68  A    between atoms: _171  and  _173
REMARK   69  A    between atoms: _173  and  _174
REMARK   70  A    between atoms: _176  and  _178
REMARK   71  A    between atoms: _178  and  _179
REMARK   72  A    between atoms: _178  and  _181
REMARK   73  A    between atoms: _181  and  _182
REMARK   74  A    between atoms: _185  and  _187
REMARK   75  A    between atoms: _187  and  _188
REMARK   76  A    between atoms: _190  and  _192
REMARK   77  A    between atoms: _192  and  _193
REMARK   78  A    between atoms: _195  and  _197
REMARK   79  A    between atoms: _197  and  _198
REMARK   80  A    between atoms: _200  and  _202
REMARK   81  A    between atoms: _202  and  _203
REMARK   82  A    between atoms: _202  and  _205
REMARK   83  A    between atoms: _205  and  _206
REMARK   84  A    between atoms: _209  and  _211
REMARK   85  A    between atoms: _211  and  _212
REMARK   86  A    between atoms: _211  and  _214
REMARK   87  A    between atoms: _217  and  _219
REMARK   88  A    between atoms: _219  and  _220
REMARK   89  A    between atoms: _219  and  _222
REMARK   90  A    between atoms: _222  and  _223
REMARK   91  A    between atoms: _226  and  _228
REMARK   92  A    between atoms: _228  and  _229
REMARK   93  A    between atoms: _232  and  _234
REMARK   94  A    between atoms: _234  and  _235
REMARK   95  A    between atoms: _234  and  _237
REMARK   96  A    between atoms: _237  and  _238
REMARK   97  A    between atoms: _242  and  _243
REMARK   98  A    between atoms: _248  and  _250
REMARK   99  A    between atoms: _250  and  _251
REMARK  100  A    between atoms: _250  and  _253
REMARK  101  A    between atoms: _256  and  _258
REMARK  102  A    between atoms: _258  and  _259
REMARK  103  A    between atoms: _258  and  _261
REMARK  104  A    between atoms: _261  and  _262
REMARK  105  A    between atoms: _267  and  _269
REMARK  106  A    between atoms: _269  and  _270
REMARK  107  A    between atoms: _269  and  _272
REMARK  108  A    between atoms: _272  and  _273
REMARK  109  A    between atoms: _276  and  _278
REMARK  110  A    between atoms: _278  and  _279
REMARK  111  A    between atoms: _278  and  _281
REMARK  112  A    between atoms: _281  and  _282
REMARK  113  A    between atoms: _285  and  _287
REMARK  114  A    between atoms: _287  and  _288
REMARK  115  A    between atoms: _290  and  _292
REMARK  116  A    between atoms: _292  and  _293
REMARK  117  A    between atoms: _292  and  _295
REMARK  118  A    between atoms: _295  and  _296
REMARK  119  A    between atoms: _296  and  _297
REMARK  120  A    between atoms: _297  and  _298
REMARK  121  A    between atoms: _307  and  _309
REMARK  122  A    between atoms: _309  and  _310
REMARK  123  A    between atoms: _309  and  _312
REMARK  124  A    between atoms: _312  and  _313
REMARK  125  A    between atoms: _316  and  _318
REMARK  126  A    between atoms: _318  and  _319
REMARK  127  A    between atoms: _318  and  _321
REMARK  128  A    between atoms: _321  and  _322
REMARK  129  A    between atoms: _327  and  _329
REMARK  130  A    between atoms: _329  and  _330
REMARK  131  A    between atoms: _329  and  _332
REMARK  132  A    between atoms: _332  and  _333
REMARK  133  A    between atoms: _333  and  _334
REMARK  134  A    between atoms: _334  and  _335
REMARK  135  A    between atoms: _344  and  _346
REMARK  136  A    between atoms: _346  and  _347
REMARK  137  A    between atoms: _346  and  _349
REMARK  138  A    between atoms: _349  and  _350
REMARK  139  A    between atoms: _353  and  _355
REMARK  140  A    between atoms: _355  and  _356
REMARK  141  A    between atoms: _355  and  _358
REMARK  142  A    between atoms: _358  and  _359
REMARK  143  A    between atoms: _362  and  _364
REMARK  144  A    between atoms: _364  and  _365
REMARK  145  A    between atoms: _364  and  _367
REMARK  146  A    between atoms: _367  and  _368
REMARK  147  A    between atoms: _371  and  _373
REMARK  148  A    between atoms: _373  and  _374
REMARK  149  A    between atoms: _373  and  _376
REMARK  150  A    between atoms: _376  and  _377
REMARK  151  A    between atoms: _380  and  _382
REMARK  152  A    between atoms: _382  and  _383
REMARK  153  A    between atoms: _382  and  _385
REMARK  154  A    between atoms: _385  and  _386
REMARK  155  A    between atoms: _389  and  _391
REMARK  156  A    between atoms: _391  and  _392
REMARK  157  A    between atoms: _394  and  _396
REMARK  158  A    between atoms: _396  and  _397
REMARK  159  A    between atoms: _400  and  _402
REMARK  160  A    between atoms: _402  and  _403
REMARK  161  A    between atoms: _402  and  _405
REMARK  162  A    between atoms: _405  and  _406
REMARK  163  A    between atoms: _409  and  _411
REMARK  164  A    between atoms: _411  and  _412
REMARK  165  A    between atoms: _411  and  _414
REMARK  166  A    between atoms: _414  and  _415
REMARK  167  A    between atoms: _418  and  _420
REMARK  168  A    between atoms: _420  and  _421
REMARK  169  A    between atoms: _420  and  _423
REMARK  170  A    between atoms: _423  and  _424
REMARK  171  A    between atoms: _427  and  _429
REMARK  172  A    between atoms: _429  and  _430
REMARK  173  A    between atoms: _429  and  _432
REMARK  174  A    between atoms: _435  and  _437
REMARK  175  A    between atoms: _437  and  _438
REMARK  176  A    between atoms: _437  and  _440
REMARK  177  A    between atoms: _440  and  _441
REMARK  178  A    between atoms: _441  and  _442
REMARK  179  A    between atoms: _447  and  _449
REMARK  180  A    between atoms: _449  and  _450
REMARK  181  A    between atoms: _449  and  _452
REMARK  182  A    between atoms: _452  and  _453
REMARK  183  A    between atoms: _456  and  _458
REMARK  184  A    between atoms: _458  and  _459
REMARK  185  A    between atoms: _458  and  _461
REMARK  186  A    between atoms: _461  and  _462
REMARK  187  A    between atoms: _467  and  _469
REMARK  188  A    between atoms: _469  and  _470
REMARK  189  A    between atoms: _472  and  _474
REMARK  190  A    between atoms: _474  and  _475
REMARK  191  A    between atoms: _474  and  _477
REMARK  192  A    between atoms: _477  and  _478
REMARK  193  A    between atoms: _481  and  _483
REMARK  194  A    between atoms: _483  and  _484
REMARK  195  A    between atoms: _486  and  _488
REMARK  196  A    between atoms: _488  and  _489
REMARK  197  A    between atoms: _491  and  _493
REMARK  198  A    between atoms: _493  and  _494
REMARK  199  A    between atoms: _493  and  _496
REMARK  200  A    between atoms: _496  and  _497
REMARK  201  A    between atoms: _500  and  _502
REMARK  202  A    between atoms: _502  and  _503
REMARK  203  A    between atoms: _502  and  _505
REMARK  204  A    between atoms: _505  and  _506
REMARK  205  A    between atoms: _510  and  _511
REMARK  206  A    between atoms: _516  and  _518
REMARK  207  A    between atoms: _518  and  _519
REMARK  208  A    between atoms: _518  and  _521
REMARK  209  A    between atoms: _524  and  _526
REMARK  210  A    between atoms: _526  and  _527
REMARK  211  A    between atoms: _526  and  _529
REMARK  212  A    between atoms: _529  and  _530
REMARK  213  A    between atoms: _535  and  _537
REMARK  214  A    between atoms: _537  and  _538
REMARK  215  A    between atoms: _537  and  _540
REMARK  216  A    between atoms: _540  and  _541
REMARK  217  A    between atoms: _544  and  _546
REMARK  218  A    between atoms: _546  and  _547
REMARK  219  A    between atoms: _546  and  _549
REMARK  220  A    between atoms: _549  and  _550
REMARK  221  A    between atoms: _553  and  _555
REMARK  222  A    between atoms: _555  and  _556
REMARK  223  A    between atoms: _558  and  _560
REMARK  224  A    between atoms: _560  and  _561
REMARK  225  A    between atoms: _560  and  _563
REMARK  226  A    between atoms: _563  and  _564
REMARK  227  A    between atoms: _564  and  _565
REMARK  228  A    between atoms: _565  and  _566
REMARK                            x       y       z     vdW  Elec       q    Type
REMARK                         _______ _______ _______ _____ _____    ______ ____
ROOT
ATOM      1  O   HOH     1       5.954  17.344  39.564  0.00  0.00    +0.000 OA
ENDROOT
TORSDOF 0
REMARK  Name = ../refined-set-2016/1bai/1bai_pocket.pdb
REMARK  228 active torsions:
REMARK  status: ('A' for Active; 'I' for Inactive)
REMARK    1  A    between atoms: _1  and  _3
REMARK    2  A    between atoms: _3  and  _4
REMARK    3  A    between atoms: _3  and  _6
REMARK    4  A    between atoms: _6  and  _7
REMARK    5  A    between atoms: _7  and  _8
REMARK    6  A    between atoms: _8  and  _9
REMARK    7  A    between atoms: _18  and  _20
REMARK    8  A    between atoms: _20  and  _21
REMARK    9  A    between atoms: _20  and  _23
REMARK   10  A    between atoms: _23  and  _24
REMARK   11  A    between atoms: _27  and  _29
REMARK   12  A    between atoms: _29  and  _30
REMARK   13  A    between atoms: _29  and  _32
REMARK   14  A    between atoms: _32  and  _33
REMARK   15  A    between atoms: _36  and  _38
REMARK   16  A    between atoms: _38  and  _39
REMARK   17  A    between atoms: _38  and  _41
REMARK   18  A    between atoms: _41  and  _42
REMARK   19  A    between atoms: _45  and  _47
REMARK   20  A    between atoms: _47  and  _48
REMARK   21  A    between atoms: _47  and  _50
REMARK   22  A    between atoms: _50  and  _51
REMARK   23  A    between atoms: _54  and  _56
REMARK   24  A    between atoms: _56  and  _57
REMARK   25  A    between atoms: _56  and  _59
REMARK   26  A    between atoms: _59  and  _60
REMARK   27  A    between atoms: _63  and  _65
REMARK   28  A    between atoms: _65  and  _66
REMARK   29  A    between atoms: _68  and  _70
REMARK   30  A    between atoms: _70  and  _71
REMARK   31  A    between atoms: _74  and  _76
REMARK   32  A    between atoms: _76  and  _77
REMARK   33  A    between atoms: _76  and  _79
REMARK   34  A    between atoms: _79  and  _80
REMARK   35  A    between atoms: _83  and  _85
REMARK   36  A    between atoms: _85  and  _86
REMARK   37  A    between atoms: _85  and  _88
REMARK   38  A    between atoms: _88  and  _89
REMARK   39  A    between atoms: _92  and  _94
REMARK   40  A    between atoms: _94  and  _95
REMARK   41  A    between atoms: _94  and  _97
REMARK   42  A    between atoms: _97  and  _98
REMARK   43  A    between atoms: _101  and  _103
REMARK   44  A    between atoms: _103  and  _104
REMARK   45  A    between atoms: _103  and  _106
REMARK   46  A    between atoms: _109  and  _111
REMARK   47  A    between atoms: _111  and  _112
REMARK   48  A    between atoms: _115  and  _117
REMARK   49  A    between atoms: _117  and  _118
REMARK   50  A    between atoms: _121  and  _123
REMARK   51  A    between atoms: _123  and  _124
REMARK   52  A    between atoms: _123  and  _126
REMARK   53  A    between atoms: _126  and  _127
REMARK   54  A    between atoms: _133  and  _134
REMARK   55  A    between atoms: _139  and  _141
REMARK   56  A    between atoms: _141  and  _142
REMARK   57  A    between atoms: _141  and  _144
REMARK   58  A    between atoms: _144  and  _145
REMARK   59  A    between atoms: _145  and  _146
REMARK   60  A    between atoms: _151  and  _153
REMARK   61  A    between atoms: _153  and  _154
REMARK   62  A    between atoms: _153  and  _156
REMARK   63  A    between atoms: _156  and  _157
REMARK   64  A    between atoms: _160  and  _162
REMARK   65  A    between atoms: _162  and  _163
REMARK   66  A    between atoms: _162  and  _165
REMARK   67  A    between atoms: _165  and  _166
REMARK   68  A    between atoms: _171  and  _173
REMARK   69  A    between atoms: _173  and  _174
REMARK   70  A    between atoms: _176  and  _178
REMARK   71  A    between atoms: _178  and  _179
REMARK   72  A    between atoms: _178  and  _181
REMARK   73  A    between atoms: _181  and  _182
REMARK   74  A    between atoms: _185  and  _187
REMARK   75  A    between atoms: _187  and  _188
REMARK   76  A    between atoms: _190  and  _192
REMARK   77  A    between atoms: _192  and  _193
REMARK   78  A    between atoms: _195  and  _197
REMARK   79  A    between atoms: _197  and  _198
REMARK   80  A    between atoms: _200  and  _202
REMARK   81  A    between atoms: _202  and  _203
REMARK   82  A    between atoms: _202  and  _205
REMARK   83  A    between atoms: _205  and  _206
REMARK   84  A    between atoms: _209  and  _211
REMARK   85  A    between atoms: _211  and  _212
REMARK   86  A    between atoms: _211  and  _214
REMARK   87  A    between atoms: _217  and  _219
REMARK   88  A    between atoms: _219  and  _220
REMARK   89  A    between atoms: _219  and  _222
REMARK   90  A    between atoms: _222  and  _223
REMARK   91  A    between atoms: _226  and  _228
REMARK   92  A    between atoms: _228  and  _229
REMARK   93  A    between atoms: _232  and  _234
REMARK   94  A    between atoms: _234  and  _235
REMARK   95  A    between atoms: _234  and  _237
REMARK   96  A    between atoms: _237  and  _238
REMARK   97  A    between atoms: _242  and  _243
REMARK   98  A    between atoms: _248  and  _250
REMARK   99  A    between atoms: _250  and  _251
REMARK  100  A    between atoms: _250  and  _253
REMARK  101  A    between atoms: _256  and  _258
REMARK  102  A    between atoms: _258  and  _259
REMARK  103  A    between atoms: _258  and  _261
REMARK  104  A    between atoms: _261  and  _262
REMARK  105  A    between atoms: _267  and  _269
REMARK  106  A    between atoms: _269  and  _270
REMARK  107  A    between atoms: _269  and  _272
REMARK  108  A    between atoms: _272  and  _273
REMARK  109  A    between atoms: _276  and  _278
REMARK  110  A    between atoms: _278  and  _279
REMARK  111  A    between atoms: _278  and  _281
REMARK  112  A    between atoms: _281  and  _282
REMARK  113  A    between atoms: _285  and  _287
REMARK  114  A    between atoms: _287  and  _288
REMARK  115  A    between atoms: _290  and  _292
REMARK  116  A    between atoms: _292  and  _293
REMARK  117  A    between atoms: _292  and  _295
REMARK  118  A    between atoms: _295  and  _296
REMARK  119  A    between atoms: _296  and  _297
REMARK  120  A    between atoms: _297  and  _298
REMARK  121  A    between atoms: _307  and  _309
REMARK  122  A    between atoms: _309  and  _310
REMARK  123  A    between atoms: _309  and  _312
REMARK  124  A    between atoms: _312  and  _313
REMARK  125  A    between atoms: _316  and  _318
REMARK  126  A    between atoms: _318  and  _319
REMARK  127  A    between atoms: _318  and  _321
REMARK  128  A    between atoms: _321  and  _322
REMARK  129  A    between atoms: _327  and  _329
REMARK  130  A    between atoms: _329  and  _330
REMARK  131  A    between atoms: _329  and  _332
REMARK  132  A    between atoms: _332  and  _333
REMARK  133  A    between atoms: _333  and  _334
REMARK  134  A    between atoms: _334  and  _335
REMARK  135  A    between atoms: _344  and  _346
REMARK  136  A    between atoms: _346  and  _347
REMARK  137  A    between atoms: _346  and  _349
REMARK  138  A    between atoms: _349  and  _350
REMARK  139  A    between atoms: _353  and  _355
REMARK  140  A    between atoms: _355  and  _356
REMARK  141  A    between atoms: _355  and  _358
REMARK  142  A    between atoms: _358  and  _359
REMARK  143  A    between atoms: _362  and  _364
REMARK  144  A    between atoms: _364  and  _365
REMARK  145  A    between atoms: _364  and  _367
REMARK  146  A    between atoms: _367  and  _368
REMARK  147  A    between atoms: _371  and  _373
REMARK  148  A    between atoms: _373  and  _374
REMARK  149  A    between atoms: _373  and  _376
REMARK  150  A    between atoms: _376  and  _377
REMARK  151  A    between atoms: _380  and  _382
REMARK  152  A    between atoms: _382  and  _383
REMARK  153  A    between atoms: _382  and  _385
REMARK  154  A    between atoms: _385  and  _386
REMARK  155  A    between atoms: _389  and  _391
REMARK  156  A    between atoms: _391  and  _392
REMARK  157  A    between atoms: _394  and  _396
REMARK  158  A    between atoms: _396  and  _397
REMARK  159  A    between atoms: _400  and  _402
REMARK  160  A    between atoms: _402  and  _403
REMARK  161  A    between atoms: _402  and  _405
REMARK  162  A    between atoms: _405  and  _406
REMARK  163  A    between atoms: _409  and  _411
REMARK  164  A    between atoms: _411  and  _412
REMARK  165  A    between atoms: _411  and  _414
REMARK  166  A    between atoms: _414  and  _415
REMARK  167  A    between atoms: _418  and  _420
REMARK  168  A    between atoms: _420  and  _421
REMARK  169  A    between atoms: _420  and  _423
REMARK  170  A    between atoms: _423  and  _424
REMARK  171  A    between atoms: _427  and  _429
REMARK  172  A    between atoms: _429  and  _430
REMARK  173  A    between atoms: _429  and  _432
REMARK  174  A    between atoms: _435  and  _437
REMARK  175  A    between atoms: _437  and  _438
REMARK  176  A    between atoms: _437  and  _440
REMARK  177  A    between atoms: _440  and  _441
REMARK  178  A    between atoms: _441  and  _442
REMARK  179  A    between atoms: _447  and  _449
REMARK  180  A    between atoms: _449  and  _450
REMARK  181  A    between atoms: _449  and  _452
REMARK  182  A    between atoms: _452  and  _453
REMARK  183  A    between atoms: _456  and  _458
REMARK  184  A    between atoms: _458  and  _459
REMARK  185  A    between atoms: _458  and  _461
REMARK  186  A    between atoms: _461  and  _462
REMARK  187  A    between atoms: _467  and  _469
REMARK  188  A    between atoms: _469  and  _470
REMARK  189  A    between atoms: _472  and  _474
REMARK  190  A    between atoms: _474  and  _475
REMARK  191  A    between atoms: _474  and  _477
REMARK  192  A    between atoms: _477  and  _478
REMARK  193  A    between atoms: _481  and  _483
REMARK  194  A    between atoms: _483  and  _484
REMARK  195  A    between atoms: _486  and  _488
REMARK  196  A    between atoms: _488  and  _489
REMARK  197  A    between atoms: _491  and  _493
REMARK  198  A    between atoms: _493  and  _494
REMARK  199  A    between atoms: _493  and  _496
REMARK  200  A    between atoms: _496  and  _497
REMARK  201  A    between atoms: _500  and  _502
REMARK  202  A    between atoms: _502  and  _503
REMARK  203  A    between atoms: _502  and  _505
REMARK  204  A    between atoms: _505  and  _506
REMARK  205  A    between atoms: _510  and  _511
REMARK  206  A    between atoms: _516  and  _518
REMARK  207  A    between atoms: _518  and  _519
REMARK  208  A    between atoms: _518  and  _521
REMARK  209  A    between atoms: _524  and  _526
REMARK  210  A    between atoms: _526  and  _527
REMARK  211  A    between atoms: _526  and  _529
REMARK  212  A    between atoms: _529  and  _530
REMARK  213  A    between atoms: _535  and  _537
REMARK  214  A    between atoms: _537  and  _538
REMARK  215  A    between atoms: _537  and  _540
REMARK  216  A    between atoms: _540  and  _541
REMARK  217  A    between atoms: _544  and  _546
REMARK  218  A    between atoms: _546  and  _547
REMARK  219  A    between atoms: _546  and  _549
REMARK  220  A    between atoms: _549  and  _550
REMARK  221  A    between atoms: _553  and  _555
REMARK  222  A    between atoms: _555  and  _556
REMARK  223  A    between atoms: _558  and  _560
REMARK  224  A    between atoms: _560  and  _561
REMARK  225  A    between atoms: _560  and  _563
REMARK  226  A    between atoms: _563  and  _564
REMARK  227  A    between atoms: _564  and  _565
REMARK  228  A    between atoms: _565  and  _566
REMARK                            x       y       z     vdW  Elec       q    Type
REMARK                         _______ _______ _______ _____ _____    ______ ____
ROOT
ATOM      1  O   HOH     1      -6.581  17.855  23.363  0.00  0.00    +0.000 OA
ENDROOT
TORSDOF 0
REMARK  Name = ../refined-set-2016/1bai/1bai_pocket.pdb
REMARK  228 active torsions:
REMARK  status: ('A' for Active; 'I' for Inactive)
REMARK    1  A    between atoms: _1  and  _3
REMARK    2  A    between atoms: _3  and  _4
REMARK    3  A    between atoms: _3  and  _6
REMARK    4  A    between atoms: _6  and  _7
REMARK    5  A    between atoms: _7  and  _8
REMARK    6  A    between atoms: _8  and  _9
REMARK    7  A    between atoms: _18  and  _20
REMARK    8  A    between atoms: _20  and  _21
REMARK    9  A    between atoms: _20  and  _23
REMARK   10  A    between atoms: _23  and  _24
REMARK   11  A    between atoms: _27  and  _29
REMARK   12  A    between atoms: _29  and  _30
REMARK   13  A    between atoms: _29  and  _32
REMARK   14  A    between atoms: _32  and  _33
REMARK   15  A    between atoms: _36  and  _38
REMARK   16  A    between atoms: _38  and  _39
REMARK   17  A    between atoms: _38  and  _41
REMARK   18  A    between atoms: _41  and  _42
REMARK   19  A    between atoms: _45  and  _47
REMARK   20  A    between atoms: _47  and  _48
REMARK   21  A    between atoms: _47  and  _50
REMARK   22  A    between atoms: _50  and  _51
REMARK   23  A    between atoms: _54  and  _56
REMARK   24  A    between atoms: _56  and  _57
REMARK   25  A    between atoms: _56  and  _59
REMARK   26  A    between atoms: _59  and  _60
REMARK   27  A    between atoms: _63  and  _65
REMARK   28  A    between atoms: _65  and  _66
REMARK   29  A    between atoms: _68  and  _70
REMARK   30  A    between atoms: _70  and  _71
REMARK   31  A    between atoms: _74  and  _76
REMARK   32  A    between atoms: _76  and  _77
REMARK   33  A    between atoms: _76  and  _79
REMARK   34  A    between atoms: _79  and  _80
REMARK   35  A    between atoms: _83  and  _85
REMARK   36  A    between atoms: _85  and  _86
REMARK   37  A    between atoms: _85  and  _88
REMARK   38  A    between atoms: _88  and  _89
REMARK   39  A    between atoms: _92  and  _94
REMARK   40  A    between atoms: _94  and  _95
REMARK   41  A    between atoms: _94  and  _97
REMARK   42  A    between atoms: _97  and  _98
REMARK   43  A    between atoms: _101  and  _103
REMARK   44  A    between atoms: _103  and  _104
REMARK   45  A    between atoms: _103  and  _106
REMARK   46  A    between atoms: _109  and  _111
REMARK   47  A    between atoms: _111  and  _112
REMARK   48  A    between atoms: _115  and  _117
REMARK   49  A    between atoms: _117  and  _118
REMARK   50  A    between atoms: _121  and  _123
REMARK   51  A    between atoms: _123  and  _124
REMARK   52  A    between atoms: _123  and  _126
REMARK   53  A    between atoms: _126  and  _127
REMARK   54  A    between atoms: _133  and  _134
REMARK   55  A    between atoms: _139  and  _141
REMARK   56  A    between atoms: _141  and  _142
REMARK   57  A    between atoms: _141  and  _144
REMARK   58  A    between atoms: _144  and  _145
REMARK   59  A    between atoms: _145  and  _146
REMARK   60  A    between atoms: _151  and  _153
REMARK   61  A    between atoms: _153  and  _154
REMARK   62  A    between atoms: _153  and  _156
REMARK   63  A    between atoms: _156  and  _157
REMARK   64  A    between atoms: _160  and  _162
REMARK   65  A    between atoms: _162  and  _163
REMARK   66  A    between atoms: _162  and  _165
REMARK   67  A    between atoms: _165  and  _166
REMARK   68  A    between atoms: _171  and  _173
REMARK   69  A    between atoms: _173  and  _174
REMARK   70  A    between atoms: _176  and  _178
REMARK   71  A    between atoms: _178  and  _179
REMARK   72  A    between atoms: _178  and  _181
REMARK   73  A    between atoms: _181  and  _182
REMARK   74  A    between atoms: _185  and  _187
REMARK   75  A    between atoms: _187  and  _188
REMARK   76  A    between atoms: _190  and  _192
REMARK   77  A    between atoms: _192  and  _193
REMARK   78  A    between atoms: _195  and  _197
REMARK   79  A    between atoms: _197  and  _198
REMARK   80  A    between atoms: _200  and  _202
REMARK   81  A    between atoms: _202  and  _203
REMARK   82  A    between atoms: _202  and  _205
REMARK   83  A    between atoms: _205  and  _206
REMARK   84  A    between atoms: _209  and  _211
REMARK   85  A    between atoms: _211  and  _212
REMARK   86  A    between atoms: _211  and  _214
REMARK   87  A    between atoms: _217  and  _219
REMARK   88  A    between atoms: _219  and  _220
REMARK   89  A    between atoms: _219  and  _222
REMARK   90  A    between atoms: _222  and  _223
REMARK   91  A    between atoms: _226  and  _228
REMARK   92  A    between atoms: _228  and  _229
REMARK   93  A    between atoms: _232  and  _234
REMARK   94  A    between atoms: _234  and  _235
REMARK   95  A    between atoms: _234  and  _237
REMARK   96  A    between atoms: _237  and  _238
REMARK   97  A    between atoms: _242  and  _243
REMARK   98  A    between atoms: _248  and  _250
REMARK   99  A    between atoms: _250  and  _251
REMARK  100  A    between atoms: _250  and  _253
REMARK  101  A    between atoms: _256  and  _258
REMARK  102  A    between atoms: _258  and  _259
REMARK  103  A    between atoms: _258  and  _261
REMARK  104  A    between atoms: _261  and  _262
REMARK  105  A    between atoms: _267  and  _269
REMARK  106  A    between atoms: _269  and  _270
REMARK  107  A    between atoms: _269  and  _272
REMARK  108  A    between atoms: _272  and  _273
REMARK  109  A    between atoms: _276  and  _278
REMARK  110  A    between atoms: _278  and  _279
REMARK  111  A    between atoms: _278  and  _281
REMARK  112  A    between atoms: _281  and  _282
REMARK  113  A    between atoms: _285  and  _287
REMARK  114  A    between atoms: _287  and  _288
REMARK  115  A    between atoms: _290  and  _292
REMARK  116  A    between atoms: _292  and  _293
REMARK  117  A    between atoms: _292  and  _295
REMARK  118  A    between atoms: _295  and  _296
REMARK  119  A    between atoms: _296  and  _297
REMARK  120  A    between atoms: _297  and  _298
REMARK  121  A    between atoms: _307  and  _309
REMARK  122  A    between atoms: _309  and  _310
REMARK  123  A    between atoms: _309  and  _312
REMARK  124  A    between atoms: _312  and  _313
REMARK  125  A    between atoms: _316  and  _318
REMARK  126  A    between atoms: _318  and  _319
REMARK  127  A    between atoms: _318  and  _321
REMARK  128  A    between atoms: _321  and  _322
REMARK  129  A    between atoms: _327  and  _329
REMARK  130  A    between atoms: _329  and  _330
REMARK  131  A    between atoms: _329  and  _332
REMARK  132  A    between atoms: _332  and  _333
REMARK  133  A    between atoms: _333  and  _334
REMARK  134  A    between atoms: _334  and  _335
REMARK  135  A    between atoms: _344  and  _346
REMARK  136  A    between atoms: _346  and  _347
REMARK  137  A    between atoms: _346  and  _349
REMARK  138  A    between atoms: _349  and  _350
REMARK  139  A    between atoms: _353  and  _355
REMARK  140  A    between atoms: _355  and  _356
REMARK  141  A    between atoms: _355  and  _358
REMARK  142  A    between atoms: _358  and  _359
REMARK  143  A    between atoms: _362  and  _364
REMARK  144  A    between atoms: _364  and  _365
REMARK  145  A    between atoms: _364  and  _367
REMARK  146  A    between atoms: _367  and  _368
REMARK  147  A    between atoms: _371  and  _373
REMARK  148  A    between atoms: _373  and  _374
REMARK  149  A    between atoms: _373  and  _376
REMARK  150  A    between atoms: _376  and  _377
REMARK  151  A    between atoms: _380  and  _382
REMARK  152  A    between atoms: _382  and  _383
REMARK  153  A    between atoms: _382  and  _385
REMARK  154  A    between atoms: _385  and  _386
REMARK  155  A    between atoms: _389  and  _391
REMARK  156  A    between atoms: _391  and  _392
REMARK  157  A    between atoms: _394  and  _396
REMARK  158  A    between atoms: _396  and  _397
REMARK  159  A    between atoms: _400  and  _402
REMARK  160  A    between atoms: _402  and  _403
REMARK  161  A    between atoms: _402  and  _405
REMARK  162  A    between atoms: _405  and  _406
REMARK  163  A    between atoms: _409  and  _411
REMARK  164  A    between atoms: _411  and  _412
REMARK  165  A    between atoms: _411  and  _414
REMARK  166  A    between atoms: _414  and  _415
REMARK  167  A    between atoms: _418  and  _420
REMARK  168  A    between atoms: _420  and  _421
REMARK  169  A    between atoms: _420  and  _423
REMARK  170  A    between atoms: _423  and  _424
REMARK  171  A    between atoms: _427  and  _429
REMARK  172  A    between atoms: _429  and  _430
REMARK  173  A    between atoms: _429  and  _432
REMARK  174  A    between atoms: _435  and  _437
REMARK  175  A    between atoms: _437  and  _438
REMARK  176  A    between atoms: _437  and  _440
REMARK  177  A    between atoms: _440  and  _441
REMARK  178  A    between atoms: _441  and  _442
REMARK  179  A    between atoms: _447  and  _449
REMARK  180  A    between atoms: _449  and  _450
REMARK  181  A    between atoms: _449  and  _452
REMARK  182  A    between atoms: _452  and  _453
REMARK  183  A    between atoms: _456  and  _458
REMARK  184  A    between atoms: _458  and  _459
REMARK  185  A    between atoms: _458  and  _461
REMARK  186  A    between atoms: _461  and  _462
REMARK  187  A    between atoms: _467  and  _469
REMARK  188  A    between atoms: _469  and  _470
REMARK  189  A    between atoms: _472  and  _474
REMARK  190  A    between atoms: _474  and  _475
REMARK  191  A    between atoms: _474  and  _477
REMARK  192  A    between atoms: _477  and  _478
REMARK  193  A    between atoms: _481  and  _483
REMARK  194  A    between atoms: _483  and  _484
REMARK  195  A    between atoms: _486  and  _488
REMARK  196  A    between atoms: _488  and  _489
REMARK  197  A    between atoms: _491  and  _493
REMARK  198  A    between atoms: _493  and  _494
REMARK  199  A    between atoms: _493  and  _496
REMARK  200  A    between atoms: _496  and  _497
REMARK  201  A    between atoms: _500  and  _502
REMARK  202  A    between atoms: _502  and  _503
REMARK  203  A    between atoms: _502  and  _505
REMARK  204  A    between atoms: _505  and  _506
REMARK  205  A    between atoms: _510  and  _511
REMARK  206  A    between atoms: _516  and  _518
REMARK  207  A    between atoms: _518  and  _519
REMARK  208  A    between atoms: _518  and  _521
REMARK  209  A    between atoms: _524  and  _526
REMARK  210  A    between atoms: _526  and  _527
REMARK  211  A    between atoms: _526  and  _529
REMARK  212  A    between atoms: _529  and  _530
REMARK  213  A    between atoms: _535  and  _537
REMARK  214  A    between atoms: _537  and  _538
REMARK  215  A    between atoms: _537  and  _540
REMARK  216  A    between atoms: _540  and  _541
REMARK  217  A    between atoms: _544  and  _546
REMARK  218  A    between atoms: _546  and  _547
REMARK  219  A    between atoms: _546  and  _549
REMARK  220  A    between atoms: _549  and  _550
REMARK  221  A    between atoms: _553  and  _555
REMARK  222  A    between atoms: _555  and  _556
REMARK  223  A    between atoms: _558  and  _560
REMARK  224  A    between atoms: _560  and  _561
REMARK  225  A    between atoms: _560  and  _563
REMARK  226  A    between atoms: _563  and  _564
REMARK  227  A    between atoms: _564  and  _565
REMARK  228  A    between atoms: _565  and  _566
REMARK                            x       y       z     vdW  Elec       q    Type
REMARK                         _______ _______ _______ _____ _____    ______ ____
ROOT
ATOM      1  O   HOH     1      12.935  19.669  35.255  0.00  0.00    +0.000 OA
ENDROOT
TORSDOF 0
REMARK  Name = ../refined-set-2016/1bai/1bai_pocket.pdb
REMARK  228 active torsions:
REMARK  status: ('A' for Active; 'I' for Inactive)
REMARK    1  A    between atoms: _1  and  _3
REMARK    2  A    between atoms: _3  and  _4
REMARK    3  A    between atoms: _3  and  _6
REMARK    4  A    between atoms: _6  and  _7
REMARK    5  A    between atoms: _7  and  _8
REMARK    6  A    between atoms: _8  and  _9
REMARK    7  A    between atoms: _18  and  _20
REMARK    8  A    between atoms: _20  and  _21
REMARK    9  A    between atoms: _20  and  _23
REMARK   10  A    between atoms: _23  and  _24
REMARK   11  A    between atoms: _27  and  _29
REMARK   12  A    between atoms: _29  and  _30
REMARK   13  A    between atoms: _29  and  _32
REMARK   14  A    between atoms: _32  and  _33
REMARK   15  A    between atoms: _36  and  _38
REMARK   16  A    between atoms: _38  and  _39
REMARK   17  A    between atoms: _38  and  _41
REMARK   18  A    between atoms: _41  and  _42
REMARK   19  A    between atoms: _45  and  _47
REMARK   20  A    between atoms: _47  and  _48
REMARK   21  A    between atoms: _47  and  _50
REMARK   22  A    between atoms: _50  and  _51
REMARK   23  A    between atoms: _54  and  _56
REMARK   24  A    between atoms: _56  and  _57
REMARK   25  A    between atoms: _56  and  _59
REMARK   26  A    between atoms: _59  and  _60
REMARK   27  A    between atoms: _63  and  _65
REMARK   28  A    between atoms: _65  and  _66
REMARK   29  A    between atoms: _68  and  _70
REMARK   30  A    between atoms: _70  and  _71
REMARK   31  A    between atoms: _74  and  _76
REMARK   32  A    between atoms: _76  and  _77
REMARK   33  A    between atoms: _76  and  _79
REMARK   34  A    between atoms: _79  and  _80
REMARK   35  A    between atoms: _83  and  _85
REMARK   36  A    between atoms: _85  and  _86
REMARK   37  A    between atoms: _85  and  _88
REMARK   38  A    between atoms: _88  and  _89
REMARK   39  A    between atoms: _92  and  _94
REMARK   40  A    between atoms: _94  and  _95
REMARK   41  A    between atoms: _94  and  _97
REMARK   42  A    between atoms: _97  and  _98
REMARK   43  A    between atoms: _101  and  _103
REMARK   44  A    between atoms: _103  and  _104
REMARK   45  A    between atoms: _103  and  _106
REMARK   46  A    between atoms: _109  and  _111
REMARK   47  A    between atoms: _111  and  _112
REMARK   48  A    between atoms: _115  and  _117
REMARK   49  A    between atoms: _117  and  _118
REMARK   50  A    between atoms: _121  and  _123
REMARK   51  A    between atoms: _123  and  _124
REMARK   52  A    between atoms: _123  and  _126
REMARK   53  A    between atoms: _126  and  _127
REMARK   54  A    between atoms: _133  and  _134
REMARK   55  A    between atoms: _139  and  _141
REMARK   56  A    between atoms: _141  and  _142
REMARK   57  A    between atoms: _141  and  _144
REMARK   58  A    between atoms: _144  and  _145
REMARK   59  A    between atoms: _145  and  _146
REMARK   60  A    between atoms: _151  and  _153
REMARK   61  A    between atoms: _153  and  _154
REMARK   62  A    between atoms: _153  and  _156
REMARK   63  A    between atoms: _156  and  _157
REMARK   64  A    between atoms: _160  and  _162
REMARK   65  A    between atoms: _162  and  _163
REMARK   66  A    between atoms: _162  and  _165
REMARK   67  A    between atoms: _165  and  _166
REMARK   68  A    between atoms: _171  and  _173
REMARK   69  A    between atoms: _173  and  _174
REMARK   70  A    between atoms: _176  and  _178
REMARK   71  A    between atoms: _178  and  _179
REMARK   72  A    between atoms: _178  and  _181
REMARK   73  A    between atoms: _181  and  _182
REMARK   74  A    between atoms: _185  and  _187
REMARK   75  A    between atoms: _187  and  _188
REMARK   76  A    between atoms: _190  and  _192
REMARK   77  A    between atoms: _192  and  _193
REMARK   78  A    between atoms: _195  and  _197
REMARK   79  A    between atoms: _197  and  _198
REMARK   80  A    between atoms: _200  and  _202
REMARK   81  A    between atoms: _202  and  _203
REMARK   82  A    between atoms: _202  and  _205
REMARK   83  A    between atoms: _205  and  _206
REMARK   84  A    between atoms: _209  and  _211
REMARK   85  A    between atoms: _211  and  _212
REMARK   86  A    between atoms: _211  and  _214
REMARK   87  A    between atoms: _217  and  _219
REMARK   88  A    between atoms: _219  and  _220
REMARK   89  A    between atoms: _219  and  _222
REMARK   90  A    between atoms: _222  and  _223
REMARK   91  A    between atoms: _226  and  _228
REMARK   92  A    between atoms: _228  and  _229
REMARK   93  A    between atoms: _232  and  _234
REMARK   94  A    between atoms: _234  and  _235
REMARK   95  A    between atoms: _234  and  _237
REMARK   96  A    between atoms: _237  and  _238
REMARK   97  A    between atoms: _242  and  _243
REMARK   98  A    between atoms: _248  and  _250
REMARK   99  A    between atoms: _250  and  _251
REMARK  100  A    between atoms: _250  and  _253
REMARK  101  A    between atoms: _256  and  _258
REMARK  102  A    between atoms: _258  and  _259
REMARK  103  A    between atoms: _258  and  _261
REMARK  104  A    between atoms: _261  and  _262
REMARK  105  A    between atoms: _267  and  _269
REMARK  106  A    between atoms: _269  and  _270
REMARK  107  A    between atoms: _269  and  _272
REMARK  108  A    between atoms: _272  and  _273
REMARK  109  A    between atoms: _276  and  _278
REMARK  110  A    between atoms: _278  and  _279
REMARK  111  A    between atoms: _278  and  _281
REMARK  112  A    between atoms: _281  and  _282
REMARK  113  A    between atoms: _285  and  _287
REMARK  114  A    between atoms: _287  and  _288
REMARK  115  A    between atoms: _290  and  _292
REMARK  116  A    between atoms: _292  and  _293
REMARK  117  A    between atoms: _292  and  _295
REMARK  118  A    between atoms: _295  and  _296
REMARK  119  A    between atoms: _296  and  _297
REMARK  120  A    between atoms: _297  and  _298
REMARK  121  A    between atoms: _307  and  _309
REMARK  122  A    between atoms: _309  and  _310
REMARK  123  A    between atoms: _309  and  _312
REMARK  124  A    between atoms: _312  and  _313
REMARK  125  A    between atoms: _316  and  _318
REMARK  126  A    between atoms: _318  and  _319
REMARK  127  A    between atoms: _318  and  _321
REMARK  128  A    between atoms: _321  and  _322
REMARK  129  A    between atoms: _327  and  _329
REMARK  130  A    between atoms: _329  and  _330
REMARK  131  A    between atoms: _329  and  _332
REMARK  132  A    between atoms: _332  and  _333
REMARK  133  A    between atoms: _333  and  _334
REMARK  134  A    between atoms: _334  and  _335
REMARK  135  A    between atoms: _344  and  _346
REMARK  136  A    between atoms: _346  and  _347
REMARK  137  A    between atoms: _346  and  _349
REMARK  138  A    between atoms: _349  and  _350
REMARK  139  A    between atoms: _353  and  _355
REMARK  140  A    between atoms: _355  and  _356
REMARK  141  A    between atoms: _355  and  _358
REMARK  142  A    between atoms: _358  and  _359
REMARK  143  A    between atoms: _362  and  _364
REMARK  144  A    between atoms: _364  and  _365
REMARK  145  A    between atoms: _364  and  _367
REMARK  146  A    between atoms: _367  and  _368
REMARK  147  A    between atoms: _371  and  _373
REMARK  148  A    between atoms: _373  and  _374
REMARK  149  A    between atoms: _373  and  _376
REMARK  150  A    between atoms: _376  and  _377
REMARK  151  A    between atoms: _380  and  _382
REMARK  152  A    between atoms: _382  and  _383
REMARK  153  A    between atoms: _382  and  _385
REMARK  154  A    between atoms: _385  and  _386
REMARK  155  A    between atoms: _389  and  _391
REMARK  156  A    between atoms: _391  and  _392
REMARK  157  A    between atoms: _394  and  _396
REMARK  158  A    between atoms: _396  and  _397
REMARK  159  A    between atoms: _400  and  _402
REMARK  160  A    between atoms: _402  and  _403
REMARK  161  A    between atoms: _402  and  _405
REMARK  162  A    between atoms: _405  and  _406
REMARK  163  A    between atoms: _409  and  _411
REMARK  164  A    between atoms: _411  and  _412
REMARK  165  A    between atoms: _411  and  _414
REMARK  166  A    between atoms: _414  and  _415
REMARK  167  A    between atoms: _418  and  _420
REMARK  168  A    between atoms: _420  and  _421
REMARK  169  A    between atoms: _420  and  _423
REMARK  170  A    between atoms: _423  and  _424
REMARK  171  A    between atoms: _427  and  _429
REMARK  172  A    between atoms: _429  and  _430
REMARK  173  A    between atoms: _429  and  _432
REMARK  174  A    between atoms: _435  and  _437
REMARK  175  A    between atoms: _437  and  _438
REMARK  176  A    between atoms: _437  and  _440
REMARK  177  A    between atoms: _440  and  _441
REMARK  178  A    between atoms: _441  and  _442
REMARK  179  A    between atoms: _447  and  _449
REMARK  180  A    between atoms: _449  and  _450
REMARK  181  A    between atoms: _449  and  _452
REMARK  182  A    between atoms: _452  and  _453
REMARK  183  A    between atoms: _456  and  _458
REMARK  184  A    between atoms: _458  and  _459
REMARK  185  A    between atoms: _458  and  _461
REMARK  186  A    between atoms: _461  and  _462
REMARK  187  A    between atoms: _467  and  _469
REMARK  188  A    between atoms: _469  and  _470
REMARK  189  A    between atoms: _472  and  _474
REMARK  190  A    between atoms: _474  and  _475
REMARK  191  A    between atoms: _474  and  _477
REMARK  192  A    between atoms: _477  and  _478
REMARK  193  A    between atoms: _481  and  _483
REMARK  194  A    between atoms: _483  and  _484
REMARK  195  A    between atoms: _486  and  _488
REMARK  196  A    between atoms: _488  and  _489
REMARK  197  A    between atoms: _491  and  _493
REMARK  198  A    between atoms: _493  and  _494
REMARK  199  A    between atoms: _493  and  _496
REMARK  200  A    between atoms: _496  and  _497
REMARK  201  A    between atoms: _500  and  _502
REMARK  202  A    between atoms: _502  and  _503
REMARK  203  A    between atoms: _502  and  _505
REMARK  204  A    between atoms: _505  and  _506
REMARK  205  A    between atoms: _510  and  _511
REMARK  206  A    between atoms: _516  and  _518
REMARK  207  A    between atoms: _518  and  _519
REMARK  208  A    between atoms: _518  and  _521
REMARK  209  A    between atoms: _524  and  _526
REMARK  210  A    between atoms: _526  and  _527
REMARK  211  A    between atoms: _526  and  _529
REMARK  212  A    between atoms: _529  and  _530
REMARK  213  A    between atoms: _535  and  _537
REMARK  214  A    between atoms: _537  and  _538
REMARK  215  A    between atoms: _537  and  _540
REMARK  216  A    between atoms: _540  and  _541
REMARK  217  A    between atoms: _544  and  _546
REMARK  218  A    between atoms: _546  and  _547
REMARK  219  A    between atoms: _546  and  _549
REMARK  220  A    between atoms: _549  and  _550
REMARK  221  A    between atoms: _553  and  _555
REMARK  222  A    between atoms: _555  and  _556
REMARK  223  A    between atoms: _558  and  _560
REMARK  224  A    between atoms: _560  and  _561
REMARK  225  A    between atoms: _560  and  _563
REMARK  226  A    between atoms: _563  and  _564
REMARK  227  A    between atoms: _564  and  _565
REMARK  228  A    between atoms: _565  and  _566
REMARK                            x       y       z     vdW  Elec       q    Type
REMARK                         _______ _______ _______ _____ _____    ______ ____
ROOT
ATOM      1  O   HOH     1      13.909  14.219  29.508  0.00  0.00    +0.000 OA
ENDROOT
TORSDOF 0
