REMARK  Name = ../refined-set-2016/3v7t/3v7t_pocket.pdb
REMARK  208 active torsions:
REMARK  status: ('A' for Active; 'I' for Inactive)
REMARK    1  A    between atoms: _1  and  _5
REMARK    2  A    between atoms: _5  and  _6
REMARK    3  A    between atoms: _5  and  _8
REMARK    4  A    between atoms: _8  and  _9
REMARK    5  A    between atoms: _12  and  _14
REMARK    6  A    between atoms: _14  and  _15
REMARK    7  A    between atoms: _14  and  _17
REMARK    8  A    between atoms: _20  and  _22
REMARK    9  A    between atoms: _22  and  _23
REMARK   10  A    between atoms: _22  and  _25
REMARK   11  A    between atoms: _25  and  _26
REMARK   12  A    between atoms: _32  and  _34
REMARK   13  A    between atoms: _34  and  _35
REMARK   14  A    between atoms: _34  and  _37
REMARK   15  A    between atoms: _37  and  _38
REMARK   16  A    between atoms: _38  and  _56
REMARK   17  A    between atoms: _39  and  _41
REMARK   18  A    between atoms: _41  and  _42
REMARK   19  A    between atoms: _41  and  _44
REMARK   20  A    between atoms: _44  and  _45
REMARK   21  A    between atoms: _50  and  _52
REMARK   22  A    between atoms: _52  and  _53
REMARK   23  A    between atoms: _52  and  _55
REMARK   24  A    between atoms: _55  and  _56
REMARK   25  A    between atoms: _57  and  _59
REMARK   26  A    between atoms: _59  and  _60
REMARK   27  A    between atoms: _59  and  _62
REMARK   28  A    between atoms: _62  and  _63
REMARK   29  A    between atoms: _66  and  _68
REMARK   30  A    between atoms: _68  and  _69
REMARK   31  A    between atoms: _72  and  _74
REMARK   32  A    between atoms: _74  and  _75
REMARK   33  A    between atoms: _74  and  _77
REMARK   34  A    between atoms: _77  and  _78
REMARK   35  A    between atoms: _78  and  _79
REMARK   36  A    between atoms: _84  and  _86
REMARK   37  A    between atoms: _86  and  _87
REMARK   38  A    between atoms: _86  and  _89
REMARK   39  A    between atoms: _89  and  _90
REMARK   40  A    between atoms: _93  and  _95
REMARK   41  A    between atoms: _95  and  _96
REMARK   42  A    between atoms: _95  and  _98
REMARK   43  A    between atoms: _98  and  _99
REMARK   44  A    between atoms: _102  and  _104
REMARK   45  A    between atoms: _104  and  _105
REMARK   46  A    between atoms: _104  and  _107
REMARK   47  A    between atoms: _110  and  _112
REMARK   48  A    between atoms: _112  and  _113
REMARK   49  A    between atoms: _112  and  _115
REMARK   50  A    between atoms: _115  and  _116
REMARK   51  A    between atoms: _119  and  _121
REMARK   52  A    between atoms: _121  and  _122
REMARK   53  A    between atoms: _121  and  _124
REMARK   54  A    between atoms: _124  and  _125
REMARK   55  A    between atoms: _130  and  _132
REMARK   56  A    between atoms: _132  and  _133
REMARK   57  A    between atoms: _132  and  _135
REMARK   58  A    between atoms: _135  and  _136
REMARK   59  A    between atoms: _139  and  _141
REMARK   60  A    between atoms: _141  and  _142
REMARK   61  A    between atoms: _141  and  _144
REMARK   62  A    between atoms: _144  and  _145
REMARK   63  A    between atoms: _150  and  _151
REMARK   64  A    between atoms: _153  and  _155
REMARK   65  A    between atoms: _155  and  _156
REMARK   66  A    between atoms: _159  and  _161
REMARK   67  A    between atoms: _161  and  _162
REMARK   68  A    between atoms: _161  and  _164
REMARK   69  A    between atoms: _164  and  _165
REMARK   70  A    between atoms: _168  and  _170
REMARK   71  A    between atoms: _170  and  _171
REMARK   72  A    between atoms: _170  and  _173
REMARK   73  A    between atoms: _173  and  _174
REMARK   74  A    between atoms: _177  and  _179
REMARK   75  A    between atoms: _179  and  _180
REMARK   76  A    between atoms: _183  and  _185
REMARK   77  A    between atoms: _185  and  _186
REMARK   78  A    between atoms: _188  and  _190
REMARK   79  A    between atoms: _190  and  _191
REMARK   80  A    between atoms: _190  and  _193
REMARK   81  A    between atoms: _193  and  _194
REMARK   82  A    between atoms: _199  and  _201
REMARK   83  A    between atoms: _201  and  _202
REMARK   84  A    between atoms: _201  and  _204
REMARK   85  A    between atoms: _204  and  _205
REMARK   86  A    between atoms: _205  and  _206
REMARK   87  A    between atoms: _206  and  _207
REMARK   88  A    between atoms: _216  and  _218
REMARK   89  A    between atoms: _218  and  _219
REMARK   90  A    between atoms: _218  and  _221
REMARK   91  A    between atoms: _221  and  _222
REMARK   92  A    between atoms: _225  and  _227
REMARK   93  A    between atoms: _227  and  _228
REMARK   94  A    between atoms: _227  and  _230
REMARK   95  A    between atoms: _230  and  _231
REMARK   96  A    between atoms: _233  and  _235
REMARK   97  A    between atoms: _235  and  _236
REMARK   98  A    between atoms: _235  and  _238
REMARK   99  A    between atoms: _238  and  _239
REMARK  100  A    between atoms: _239  and  _350
REMARK  101  A    between atoms: _240  and  _242
REMARK  102  A    between atoms: _242  and  _243
REMARK  103  A    between atoms: _242  and  _245
REMARK  104  A    between atoms: _245  and  _246
REMARK  105  A    between atoms: _246  and  _247
REMARK  106  A    between atoms: _252  and  _254
REMARK  107  A    between atoms: _254  and  _255
REMARK  108  A    between atoms: _257  and  _259
REMARK  109  A    between atoms: _259  and  _260
REMARK  110  A    between atoms: _259  and  _262
REMARK  111  A    between atoms: _262  and  _263
REMARK  112  A    between atoms: _266  and  _268
REMARK  113  A    between atoms: _268  and  _269
REMARK  114  A    between atoms: _268  and  _271
REMARK  115  A    between atoms: _271  and  _272
REMARK  116  A    between atoms: _274  and  _276
REMARK  117  A    between atoms: _276  and  _277
REMARK  118  A    between atoms: _279  and  _281
REMARK  119  A    between atoms: _281  and  _282
REMARK  120  A    between atoms: _284  and  _286
REMARK  121  A    between atoms: _286  and  _287
REMARK  122  A    between atoms: _286  and  _289
REMARK  123  A    between atoms: _292  and  _294
REMARK  124  A    between atoms: _294  and  _295
REMARK  125  A    between atoms: _294  and  _297
REMARK  126  A    between atoms: _300  and  _302
REMARK  127  A    between atoms: _302  and  _303
REMARK  128  A    between atoms: _302  and  _305
REMARK  129  A    between atoms: _305  and  _306
REMARK  130  A    between atoms: _308  and  _310
REMARK  131  A    between atoms: _310  and  _311
REMARK  132  A    between atoms: _310  and  _313
REMARK  133  A    between atoms: _313  and  _314
REMARK  134  A    between atoms: _324  and  _326
REMARK  135  A    between atoms: _326  and  _327
REMARK  136  A    between atoms: _329  and  _331
REMARK  137  A    between atoms: _331  and  _332
REMARK  138  A    between atoms: _331  and  _334
REMARK  139  A    between atoms: _334  and  _335
REMARK  140  A    between atoms: _335  and  _336
REMARK  141  A    between atoms: _339  and  _341
REMARK  142  A    between atoms: _341  and  _342
REMARK  143  A    between atoms: _344  and  _346
REMARK  144  A    between atoms: _346  and  _347
REMARK  145  A    between atoms: _346  and  _349
REMARK  146  A    between atoms: _349  and  _350
REMARK  147  A    between atoms: _351  and  _353
REMARK  148  A    between atoms: _353  and  _354
REMARK  149  A    between atoms: _357  and  _359
REMARK  150  A    between atoms: _359  and  _360
REMARK  151  A    between atoms: _359  and  _362
REMARK  152  A    between atoms: _362  and  _363
REMARK  153  A    between atoms: _363  and  _364
REMARK  154  A    between atoms: _369  and  _371
REMARK  155  A    between atoms: _371  and  _372
REMARK  156  A    between atoms: _371  and  _374
REMARK  157  A    between atoms: _374  and  _375
REMARK  158  A    between atoms: _375  and  _376
REMARK  159  A    between atoms: _376  and  _377
REMARK  160  A    between atoms: _387  and  _388
REMARK  161  A    between atoms: _393  and  _395
REMARK  162  A    between atoms: _395  and  _396
REMARK  163  A    between atoms: _398  and  _400
REMARK  164  A    between atoms: _400  and  _401
REMARK  165  A    between atoms: _400  and  _403
REMARK  166  A    between atoms: _403  and  _404
REMARK  167  A    between atoms: _407  and  _409
REMARK  168  A    between atoms: _409  and  _410
REMARK  169  A    between atoms: _409  and  _412
REMARK  170  A    between atoms: _412  and  _413
REMARK  171  A    between atoms: _418  and  _419
REMARK  172  A    between atoms: _423  and  _424
REMARK  173  A    between atoms: _427  and  _428
REMARK  174  A    between atoms: _433  and  _435
REMARK  175  A    between atoms: _435  and  _436
REMARK  176  A    between atoms: _435  and  _438
REMARK  177  A    between atoms: _438  and  _439
REMARK  178  A    between atoms: _442  and  _444
REMARK  179  A    between atoms: _444  and  _445
REMARK  180  A    between atoms: _444  and  _447
REMARK  181  A    between atoms: _447  and  _448
REMARK  182  A    between atoms: _448  and  _449
REMARK  183  A    between atoms: _449  and  _450
REMARK  184  A    between atoms: _450  and  _451
REMARK  185  A    between atoms: _455  and  _457
REMARK  186  A    between atoms: _457  and  _458
REMARK  187  A    between atoms: _457  and  _460
REMARK  188  A    between atoms: _460  and  _461
REMARK  189  A    between atoms: _467  and  _469
REMARK  190  A    between atoms: _469  and  _470
REMARK  191  A    between atoms: _469  and  _472
REMARK  192  A    between atoms: _472  and  _473
REMARK  193  A    between atoms: _478  and  _479
REMARK  194  A    between atoms: _481  and  _483
REMARK  195  A    between atoms: _483  and  _484
REMARK  196  A    between atoms: _483  and  _486
REMARK  197  A    between atoms: _486  and  _487
REMARK  198  A    between atoms: _490  and  _492
REMARK  199  A    between atoms: _492  and  _493
REMARK  200  A    between atoms: _496  and  _498
REMARK  201  A    between atoms: _498  and  _499
REMARK  202  A    between atoms: _498  and  _501
REMARK  203  A    between atoms: _501  and  _502
REMARK  204  A    between atoms: _502  and  _503
REMARK  205  A    between atoms: _508  and  _510
REMARK  206  A    between atoms: _510  and  _511
REMARK  207  A    between atoms: _510  and  _513
REMARK  208  A    between atoms: _513  and  _514
REMARK                            x       y       z     vdW  Elec       q    Type
REMARK                         _______ _______ _______ _____ _____    ______ ____
ROOT
ATOM      1  C   ILE A   1      38.247 -25.963  -9.002  0.00  0.00    +0.202 C 
ATOM      2  O   ILE A   1      37.023 -26.042  -9.116  0.00  0.00    -0.277 OA
ATOM      3  N   VAL A   2      39.044 -25.427  -9.942  0.00  0.00    -0.301 N 
ATOM      4  H   VAL A   2      40.064 -25.377  -9.746  0.00  0.00    +0.150 HD
ENDROOT
BRANCH   1   5
ATOM      5  CA  ILE A   1      38.932 -26.469  -7.730  0.00  0.00    +0.013 C 
BRANCH   5   6
ATOM      6  N   ILE A   1      38.396 -25.765  -6.567  0.00  0.00    +0.387 N 
ATOM      7  H1  ILE A   1      38.865 -26.113  -5.706  0.00  0.00    -0.089 HD
ATOM      8  H2  ILE A   1      37.373 -25.938  -6.500  0.00  0.00    -0.089 HD
ATOM      9  H3  ILE A   1      38.570 -24.745  -6.670  0.00  0.00    -0.089 HD
ENDBRANCH   5   6
BRANCH   5  10
ATOM     10  CB  ILE A   1      38.830 -28.017  -7.538  0.00  0.00    -0.011 C 
ATOM     11  CG2 ILE A   1      39.001 -28.806  -8.844  0.00  0.00    -0.002 C 
BRANCH  10  12
ATOM     12  CG1 ILE A   1      39.748 -28.551  -6.394  0.00  0.00    -0.002 C 
ATOM     13  CD1 ILE A   1      41.326 -28.491  -6.604  0.00  0.00    -0.000 C 
ENDBRANCH  10  12
ENDBRANCH   5  10
ENDBRANCH   1   5
BRANCH   3  14
ATOM     14  CA  VAL A   2      38.565 -24.908 -11.226  0.00  0.00    +0.137 C 
BRANCH  14  15
ATOM     15  CB  VAL A   2      39.302 -23.614 -11.674  0.00  0.00    +0.026 C 
ATOM     16  CG2 VAL A   2      39.275 -22.552 -10.575  0.00  0.00    +0.002 C 
ATOM     17  CG1 VAL A   2      38.702 -23.055 -12.964  0.00  0.00    +0.002 C 
ENDBRANCH  14  15
BRANCH  14  18
ATOM     18  C   VAL A   2      38.665 -26.034 -12.257  0.00  0.00    +0.227 C 
ATOM     19  O   VAL A   2      39.729 -26.638 -12.413  0.00  0.00    -0.286 OA
ENDBRANCH  14  18
ENDBRANCH   3  14
TORSDOF 7
REMARK  Name = ../refined-set-2016/3v7t/3v7t_pocket.pdb
REMARK  208 active torsions:
REMARK  status: ('A' for Active; 'I' for Inactive)
REMARK    1  A    between atoms: _1  and  _5
REMARK    2  A    between atoms: _5  and  _6
REMARK    3  A    between atoms: _5  and  _8
REMARK    4  A    between atoms: _8  and  _9
REMARK    5  A    between atoms: _12  and  _14
REMARK    6  A    between atoms: _14  and  _15
REMARK    7  A    between atoms: _14  and  _17
REMARK    8  A    between atoms: _20  and  _22
REMARK    9  A    between atoms: _22  and  _23
REMARK   10  A    between atoms: _22  and  _25
REMARK   11  A    between atoms: _25  and  _26
REMARK   12  A    between atoms: _32  and  _34
REMARK   13  A    between atoms: _34  and  _35
REMARK   14  A    between atoms: _34  and  _37
REMARK   15  A    between atoms: _37  and  _38
REMARK   16  A    between atoms: _38  and  _56
REMARK   17  A    between atoms: _39  and  _41
REMARK   18  A    between atoms: _41  and  _42
REMARK   19  A    between atoms: _41  and  _44
REMARK   20  A    between atoms: _44  and  _45
REMARK   21  A    between atoms: _50  and  _52
REMARK   22  A    between atoms: _52  and  _53
REMARK   23  A    between atoms: _52  and  _55
REMARK   24  A    between atoms: _55  and  _56
REMARK   25  A    between atoms: _57  and  _59
REMARK   26  A    between atoms: _59  and  _60
REMARK   27  A    between atoms: _59  and  _62
REMARK   28  A    between atoms: _62  and  _63
REMARK   29  A    between atoms: _66  and  _68
REMARK   30  A    between atoms: _68  and  _69
REMARK   31  A    between atoms: _72  and  _74
REMARK   32  A    between atoms: _74  and  _75
REMARK   33  A    between atoms: _74  and  _77
REMARK   34  A    between atoms: _77  and  _78
REMARK   35  A    between atoms: _78  and  _79
REMARK   36  A    between atoms: _84  and  _86
REMARK   37  A    between atoms: _86  and  _87
REMARK   38  A    between atoms: _86  and  _89
REMARK   39  A    between atoms: _89  and  _90
REMARK   40  A    between atoms: _93  and  _95
REMARK   41  A    between atoms: _95  and  _96
REMARK   42  A    between atoms: _95  and  _98
REMARK   43  A    between atoms: _98  and  _99
REMARK   44  A    between atoms: _102  and  _104
REMARK   45  A    between atoms: _104  and  _105
REMARK   46  A    between atoms: _104  and  _107
REMARK   47  A    between atoms: _110  and  _112
REMARK   48  A    between atoms: _112  and  _113
REMARK   49  A    between atoms: _112  and  _115
REMARK   50  A    between atoms: _115  and  _116
REMARK   51  A    between atoms: _119  and  _121
REMARK   52  A    between atoms: _121  and  _122
REMARK   53  A    between atoms: _121  and  _124
REMARK   54  A    between atoms: _124  and  _125
REMARK   55  A    between atoms: _130  and  _132
REMARK   56  A    between atoms: _132  and  _133
REMARK   57  A    between atoms: _132  and  _135
REMARK   58  A    between atoms: _135  and  _136
REMARK   59  A    between atoms: _139  and  _141
REMARK   60  A    between atoms: _141  and  _142
REMARK   61  A    between atoms: _141  and  _144
REMARK   62  A    between atoms: _144  and  _145
REMARK   63  A    between atoms: _150  and  _151
REMARK   64  A    between atoms: _153  and  _155
REMARK   65  A    between atoms: _155  and  _156
REMARK   66  A    between atoms: _159  and  _161
REMARK   67  A    between atoms: _161  and  _162
REMARK   68  A    between atoms: _161  and  _164
REMARK   69  A    between atoms: _164  and  _165
REMARK   70  A    between atoms: _168  and  _170
REMARK   71  A    between atoms: _170  and  _171
REMARK   72  A    between atoms: _170  and  _173
REMARK   73  A    between atoms: _173  and  _174
REMARK   74  A    between atoms: _177  and  _179
REMARK   75  A    between atoms: _179  and  _180
REMARK   76  A    between atoms: _183  and  _185
REMARK   77  A    between atoms: _185  and  _186
REMARK   78  A    between atoms: _188  and  _190
REMARK   79  A    between atoms: _190  and  _191
REMARK   80  A    between atoms: _190  and  _193
REMARK   81  A    between atoms: _193  and  _194
REMARK   82  A    between atoms: _199  and  _201
REMARK   83  A    between atoms: _201  and  _202
REMARK   84  A    between atoms: _201  and  _204
REMARK   85  A    between atoms: _204  and  _205
REMARK   86  A    between atoms: _205  and  _206
REMARK   87  A    between atoms: _206  and  _207
REMARK   88  A    between atoms: _216  and  _218
REMARK   89  A    between atoms: _218  and  _219
REMARK   90  A    between atoms: _218  and  _221
REMARK   91  A    between atoms: _221  and  _222
REMARK   92  A    between atoms: _225  and  _227
REMARK   93  A    between atoms: _227  and  _228
REMARK   94  A    between atoms: _227  and  _230
REMARK   95  A    between atoms: _230  and  _231
REMARK   96  A    between atoms: _233  and  _235
REMARK   97  A    between atoms: _235  and  _236
REMARK   98  A    between atoms: _235  and  _238
REMARK   99  A    between atoms: _238  and  _239
REMARK  100  A    between atoms: _239  and  _350
REMARK  101  A    between atoms: _240  and  _242
REMARK  102  A    between atoms: _242  and  _243
REMARK  103  A    between atoms: _242  and  _245
REMARK  104  A    between atoms: _245  and  _246
REMARK  105  A    between atoms: _246  and  _247
REMARK  106  A    between atoms: _252  and  _254
REMARK  107  A    between atoms: _254  and  _255
REMARK  108  A    between atoms: _257  and  _259
REMARK  109  A    between atoms: _259  and  _260
REMARK  110  A    between atoms: _259  and  _262
REMARK  111  A    between atoms: _262  and  _263
REMARK  112  A    between atoms: _266  and  _268
REMARK  113  A    between atoms: _268  and  _269
REMARK  114  A    between atoms: _268  and  _271
REMARK  115  A    between atoms: _271  and  _272
REMARK  116  A    between atoms: _274  and  _276
REMARK  117  A    between atoms: _276  and  _277
REMARK  118  A    between atoms: _279  and  _281
REMARK  119  A    between atoms: _281  and  _282
REMARK  120  A    between atoms: _284  and  _286
REMARK  121  A    between atoms: _286  and  _287
REMARK  122  A    between atoms: _286  and  _289
REMARK  123  A    between atoms: _292  and  _294
REMARK  124  A    between atoms: _294  and  _295
REMARK  125  A    between atoms: _294  and  _297
REMARK  126  A    between atoms: _300  and  _302
REMARK  127  A    between atoms: _302  and  _303
REMARK  128  A    between atoms: _302  and  _305
REMARK  129  A    between atoms: _305  and  _306
REMARK  130  A    between atoms: _308  and  _310
REMARK  131  A    between atoms: _310  and  _311
REMARK  132  A    between atoms: _310  and  _313
REMARK  133  A    between atoms: _313  and  _314
REMARK  134  A    between atoms: _324  and  _326
REMARK  135  A    between atoms: _326  and  _327
REMARK  136  A    between atoms: _329  and  _331
REMARK  137  A    between atoms: _331  and  _332
REMARK  138  A    between atoms: _331  and  _334
REMARK  139  A    between atoms: _334  and  _335
REMARK  140  A    between atoms: _335  and  _336
REMARK  141  A    between atoms: _339  and  _341
REMARK  142  A    between atoms: _341  and  _342
REMARK  143  A    between atoms: _344  and  _346
REMARK  144  A    between atoms: _346  and  _347
REMARK  145  A    between atoms: _346  and  _349
REMARK  146  A    between atoms: _349  and  _350
REMARK  147  A    between atoms: _351  and  _353
REMARK  148  A    between atoms: _353  and  _354
REMARK  149  A    between atoms: _357  and  _359
REMARK  150  A    between atoms: _359  and  _360
REMARK  151  A    between atoms: _359  and  _362
REMARK  152  A    between atoms: _362  and  _363
REMARK  153  A    between atoms: _363  and  _364
REMARK  154  A    between atoms: _369  and  _371
REMARK  155  A    between atoms: _371  and  _372
REMARK  156  A    between atoms: _371  and  _374
REMARK  157  A    between atoms: _374  and  _375
REMARK  158  A    between atoms: _375  and  _376
REMARK  159  A    between atoms: _376  and  _377
REMARK  160  A    between atoms: _387  and  _388
REMARK  161  A    between atoms: _393  and  _395
REMARK  162  A    between atoms: _395  and  _396
REMARK  163  A    between atoms: _398  and  _400
REMARK  164  A    between atoms: _400  and  _401
REMARK  165  A    between atoms: _400  and  _403
REMARK  166  A    between atoms: _403  and  _404
REMARK  167  A    between atoms: _407  and  _409
REMARK  168  A    between atoms: _409  and  _410
REMARK  169  A    between atoms: _409  and  _412
REMARK  170  A    between atoms: _412  and  _413
REMARK  171  A    between atoms: _418  and  _419
REMARK  172  A    between atoms: _423  and  _424
REMARK  173  A    between atoms: _427  and  _428
REMARK  174  A    between atoms: _433  and  _435
REMARK  175  A    between atoms: _435  and  _436
REMARK  176  A    between atoms: _435  and  _438
REMARK  177  A    between atoms: _438  and  _439
REMARK  178  A    between atoms: _442  and  _444
REMARK  179  A    between atoms: _444  and  _445
REMARK  180  A    between atoms: _444  and  _447
REMARK  181  A    between atoms: _447  and  _448
REMARK  182  A    between atoms: _448  and  _449
REMARK  183  A    between atoms: _449  and  _450
REMARK  184  A    between atoms: _450  and  _451
REMARK  185  A    between atoms: _455  and  _457
REMARK  186  A    between atoms: _457  and  _458
REMARK  187  A    between atoms: _457  and  _460
REMARK  188  A    between atoms: _460  and  _461
REMARK  189  A    between atoms: _467  and  _469
REMARK  190  A    between atoms: _469  and  _470
REMARK  191  A    between atoms: _469  and  _472
REMARK  192  A    between atoms: _472  and  _473
REMARK  193  A    between atoms: _478  and  _479
REMARK  194  A    between atoms: _481  and  _483
REMARK  195  A    between atoms: _483  and  _484
REMARK  196  A    between atoms: _483  and  _486
REMARK  197  A    between atoms: _486  and  _487
REMARK  198  A    between atoms: _490  and  _492
REMARK  199  A    between atoms: _492  and  _493
REMARK  200  A    between atoms: _496  and  _498
REMARK  201  A    between atoms: _498  and  _499
REMARK  202  A    between atoms: _498  and  _501
REMARK  203  A    between atoms: _501  and  _502
REMARK  204  A    between atoms: _502  and  _503
REMARK  205  A    between atoms: _508  and  _510
REMARK  206  A    between atoms: _510  and  _511
REMARK  207  A    between atoms: _510  and  _513
REMARK  208  A    between atoms: _513  and  _514
REMARK                            x       y       z     vdW  Elec       q    Type
REMARK                         _______ _______ _______ _____ _____    ______ ____
ROOT
ATOM      1  SG  CYS A   2      43.484 -22.623   4.191  0.00  0.00    -0.080 S 
ENDROOT
BRANCH   1   2
ATOM      2  SG  CYS A   2      45.485 -22.854   4.465  0.00  0.00    -0.080 S 
BRANCH   2   3
ATOM      3  CB  CYS A   2      45.662 -22.580   6.242  0.00  0.00    +0.096 C 
BRANCH   3   4
ATOM      4  CA  CYS A   2      45.835 -21.116   6.631  0.00  0.00    +0.149 C 
BRANCH   4   5
ATOM      5  N   CYS A   2      47.111 -20.612   6.129  0.00  0.00    -0.297 N 
ATOM      6  C   HIS A   1      47.473 -19.322   6.073  0.00  0.00    +0.239 C 
ATOM      7  O   HIS A   1      46.736 -18.395   6.413  0.00  0.00    -0.274 OA
ATOM      8  H   CYS A   2      47.797 -21.314   5.786  0.00  0.00    +0.150 HD
BRANCH   6   9
ATOM      9  CA  HIS A   1      48.889 -19.028   5.559  0.00  0.00    +0.151 C 
BRANCH   9  10
ATOM     10  N   HIS A   1      49.808 -20.174   5.647  0.00  0.00    -0.238 NA
ATOM     11  H   HIS A   1      50.153 -20.602   4.764  0.00  0.00    +0.142 HD
ENDBRANCH   9  10
BRANCH   9  12
ATOM     12  CB  HIS A   1      48.890 -18.393   4.155  0.00  0.00    +0.074 C 
BRANCH  12  13
ATOM     13  CG  HIS A   1      48.015 -19.075   3.154  0.00  0.00    +0.082 A 
ATOM     14  CD2 HIS A   1      46.721 -18.839   2.834  0.00  0.00    +0.115 A 
ATOM     15  NE2 HIS A   1      46.396 -19.718   1.834  0.00  0.00    -0.221 NA
ATOM     16  CE1 HIS A   1      47.484 -20.445   1.582  0.00  0.00    +0.199 A 
ATOM     17  ND1 HIS A   1      48.497 -20.086   2.350  0.00  0.00    -0.227 NA
ENDBRANCH  12  13
ENDBRANCH   9  12
ENDBRANCH   6   9
ENDBRANCH   4   5
BRANCH   4  18
ATOM     18  C   CYS A   2      45.759 -20.945   8.141  0.00  0.00    +0.228 C 
ATOM     19  O   CYS A   2      44.712 -20.569   8.666  0.00  0.00    -0.286 OA
ENDBRANCH   4  18
ENDBRANCH   3   4
ENDBRANCH   2   3
ENDBRANCH   1   2
BRANCH   1  20
ATOM     20  CB  CYS A   2      42.806 -24.156   4.875  0.00  0.00    +0.096 C 
BRANCH  20  21
ATOM     21  CA  CYS A   2      41.511 -24.621   4.211  0.00  0.00    +0.149 C 
BRANCH  21  23
ATOM     22  C   HIS A   1      39.860 -22.845   4.720  0.00  0.00    +0.239 C 
ATOM     23  N   CYS A   2      40.358 -24.075   4.918  0.00  0.00    -0.297 N 
ATOM     24  H   CYS A   2      39.890 -24.680   5.623  0.00  0.00    +0.150 HD
ATOM     25  O   HIS A   1      40.317 -22.054   3.895  0.00  0.00    -0.274 OA
BRANCH  22  26
ATOM     26  CA  HIS A   1      38.668 -22.443   5.581  0.00  0.00    +0.149 C 
BRANCH  26  27
ATOM     27  N   HIS A   1      37.878 -23.608   5.978  0.00  0.00    -0.238 NA
ATOM     28  H   HIS A   1      38.350 -24.381   6.489  0.00  0.00    +0.142 HD
ENDBRANCH  26  27
BRANCH  26  29
ATOM     29  CB  HIS A   1      39.106 -21.611   6.803  0.00  0.00    +0.053 C 
BRANCH  29  30
ATOM     30  CG  HIS A   1      40.070 -22.272   7.764  0.00  0.00    -0.020 A 
ATOM     31  CD2 HIS A   1      39.603 -23.026   8.833  0.00  0.00    -0.004 A 
ATOM     32  CE2 HIS A   1      40.494 -23.611   9.740  0.00  0.00    -0.000 A 
ATOM     33  CZ  HIS A   1      41.852 -23.435   9.586  0.00  0.00    -0.000 A 
ATOM     34  CE1 HIS A   1      42.332 -22.685   8.535  0.00  0.00    -0.000 A 
ATOM     35  CD1 HIS A   1      41.442 -22.088   7.636  0.00  0.00    -0.004 A 
ENDBRANCH  29  30
ENDBRANCH  26  29
ENDBRANCH  22  26
ENDBRANCH  21  23
BRANCH  21  36
ATOM     36  C   CYS A   2      41.457 -26.139   4.124  0.00  0.00    +0.228 C 
ATOM     37  O   CYS A   2      40.721 -26.790   4.868  0.00  0.00    -0.286 OA
ENDBRANCH  21  36
ENDBRANCH  20  21
ENDBRANCH   1  20
TORSDOF 17
REMARK  Name = ../refined-set-2016/3v7t/3v7t_pocket.pdb
REMARK  208 active torsions:
REMARK  status: ('A' for Active; 'I' for Inactive)
REMARK    1  A    between atoms: _1  and  _5
REMARK    2  A    between atoms: _5  and  _6
REMARK    3  A    between atoms: _5  and  _8
REMARK    4  A    between atoms: _8  and  _9
REMARK    5  A    between atoms: _12  and  _14
REMARK    6  A    between atoms: _14  and  _15
REMARK    7  A    between atoms: _14  and  _17
REMARK    8  A    between atoms: _20  and  _22
REMARK    9  A    between atoms: _22  and  _23
REMARK   10  A    between atoms: _22  and  _25
REMARK   11  A    between atoms: _25  and  _26
REMARK   12  A    between atoms: _32  and  _34
REMARK   13  A    between atoms: _34  and  _35
REMARK   14  A    between atoms: _34  and  _37
REMARK   15  A    between atoms: _37  and  _38
REMARK   16  A    between atoms: _38  and  _56
REMARK   17  A    between atoms: _39  and  _41
REMARK   18  A    between atoms: _41  and  _42
REMARK   19  A    between atoms: _41  and  _44
REMARK   20  A    between atoms: _44  and  _45
REMARK   21  A    between atoms: _50  and  _52
REMARK   22  A    between atoms: _52  and  _53
REMARK   23  A    between atoms: _52  and  _55
REMARK   24  A    between atoms: _55  and  _56
REMARK   25  A    between atoms: _57  and  _59
REMARK   26  A    between atoms: _59  and  _60
REMARK   27  A    between atoms: _59  and  _62
REMARK   28  A    between atoms: _62  and  _63
REMARK   29  A    between atoms: _66  and  _68
REMARK   30  A    between atoms: _68  and  _69
REMARK   31  A    between atoms: _72  and  _74
REMARK   32  A    between atoms: _74  and  _75
REMARK   33  A    between atoms: _74  and  _77
REMARK   34  A    between atoms: _77  and  _78
REMARK   35  A    between atoms: _78  and  _79
REMARK   36  A    between atoms: _84  and  _86
REMARK   37  A    between atoms: _86  and  _87
REMARK   38  A    between atoms: _86  and  _89
REMARK   39  A    between atoms: _89  and  _90
REMARK   40  A    between atoms: _93  and  _95
REMARK   41  A    between atoms: _95  and  _96
REMARK   42  A    between atoms: _95  and  _98
REMARK   43  A    between atoms: _98  and  _99
REMARK   44  A    between atoms: _102  and  _104
REMARK   45  A    between atoms: _104  and  _105
REMARK   46  A    between atoms: _104  and  _107
REMARK   47  A    between atoms: _110  and  _112
REMARK   48  A    between atoms: _112  and  _113
REMARK   49  A    between atoms: _112  and  _115
REMARK   50  A    between atoms: _115  and  _116
REMARK   51  A    between atoms: _119  and  _121
REMARK   52  A    between atoms: _121  and  _122
REMARK   53  A    between atoms: _121  and  _124
REMARK   54  A    between atoms: _124  and  _125
REMARK   55  A    between atoms: _130  and  _132
REMARK   56  A    between atoms: _132  and  _133
REMARK   57  A    between atoms: _132  and  _135
REMARK   58  A    between atoms: _135  and  _136
REMARK   59  A    between atoms: _139  and  _141
REMARK   60  A    between atoms: _141  and  _142
REMARK   61  A    between atoms: _141  and  _144
REMARK   62  A    between atoms: _144  and  _145
REMARK   63  A    between atoms: _150  and  _151
REMARK   64  A    between atoms: _153  and  _155
REMARK   65  A    between atoms: _155  and  _156
REMARK   66  A    between atoms: _159  and  _161
REMARK   67  A    between atoms: _161  and  _162
REMARK   68  A    between atoms: _161  and  _164
REMARK   69  A    between atoms: _164  and  _165
REMARK   70  A    between atoms: _168  and  _170
REMARK   71  A    between atoms: _170  and  _171
REMARK   72  A    between atoms: _170  and  _173
REMARK   73  A    between atoms: _173  and  _174
REMARK   74  A    between atoms: _177  and  _179
REMARK   75  A    between atoms: _179  and  _180
REMARK   76  A    between atoms: _183  and  _185
REMARK   77  A    between atoms: _185  and  _186
REMARK   78  A    between atoms: _188  and  _190
REMARK   79  A    between atoms: _190  and  _191
REMARK   80  A    between atoms: _190  and  _193
REMARK   81  A    between atoms: _193  and  _194
REMARK   82  A    between atoms: _199  and  _201
REMARK   83  A    between atoms: _201  and  _202
REMARK   84  A    between atoms: _201  and  _204
REMARK   85  A    between atoms: _204  and  _205
REMARK   86  A    between atoms: _205  and  _206
REMARK   87  A    between atoms: _206  and  _207
REMARK   88  A    between atoms: _216  and  _218
REMARK   89  A    between atoms: _218  and  _219
REMARK   90  A    between atoms: _218  and  _221
REMARK   91  A    between atoms: _221  and  _222
REMARK   92  A    between atoms: _225  and  _227
REMARK   93  A    between atoms: _227  and  _228
REMARK   94  A    between atoms: _227  and  _230
REMARK   95  A    between atoms: _230  and  _231
REMARK   96  A    between atoms: _233  and  _235
REMARK   97  A    between atoms: _235  and  _236
REMARK   98  A    between atoms: _235  and  _238
REMARK   99  A    between atoms: _238  and  _239
REMARK  100  A    between atoms: _239  and  _350
REMARK  101  A    between atoms: _240  and  _242
REMARK  102  A    between atoms: _242  and  _243
REMARK  103  A    between atoms: _242  and  _245
REMARK  104  A    between atoms: _245  and  _246
REMARK  105  A    between atoms: _246  and  _247
REMARK  106  A    between atoms: _252  and  _254
REMARK  107  A    between atoms: _254  and  _255
REMARK  108  A    between atoms: _257  and  _259
REMARK  109  A    between atoms: _259  and  _260
REMARK  110  A    between atoms: _259  and  _262
REMARK  111  A    between atoms: _262  and  _263
REMARK  112  A    between atoms: _266  and  _268
REMARK  113  A    between atoms: _268  and  _269
REMARK  114  A    between atoms: _268  and  _271
REMARK  115  A    between atoms: _271  and  _272
REMARK  116  A    between atoms: _274  and  _276
REMARK  117  A    between atoms: _276  and  _277
REMARK  118  A    between atoms: _279  and  _281
REMARK  119  A    between atoms: _281  and  _282
REMARK  120  A    between atoms: _284  and  _286
REMARK  121  A    between atoms: _286  and  _287
REMARK  122  A    between atoms: _286  and  _289
REMARK  123  A    between atoms: _292  and  _294
REMARK  124  A    between atoms: _294  and  _295
REMARK  125  A    between atoms: _294  and  _297
REMARK  126  A    between atoms: _300  and  _302
REMARK  127  A    between atoms: _302  and  _303
REMARK  128  A    between atoms: _302  and  _305
REMARK  129  A    between atoms: _305  and  _306
REMARK  130  A    between atoms: _308  and  _310
REMARK  131  A    between atoms: _310  and  _311
REMARK  132  A    between atoms: _310  and  _313
REMARK  133  A    between atoms: _313  and  _314
REMARK  134  A    between atoms: _324  and  _326
REMARK  135  A    between atoms: _326  and  _327
REMARK  136  A    between atoms: _329  and  _331
REMARK  137  A    between atoms: _331  and  _332
REMARK  138  A    between atoms: _331  and  _334
REMARK  139  A    between atoms: _334  and  _335
REMARK  140  A    between atoms: _335  and  _336
REMARK  141  A    between atoms: _339  and  _341
REMARK  142  A    between atoms: _341  and  _342
REMARK  143  A    between atoms: _344  and  _346
REMARK  144  A    between atoms: _346  and  _347
REMARK  145  A    between atoms: _346  and  _349
REMARK  146  A    between atoms: _349  and  _350
REMARK  147  A    between atoms: _351  and  _353
REMARK  148  A    between atoms: _353  and  _354
REMARK  149  A    between atoms: _357  and  _359
REMARK  150  A    between atoms: _359  and  _360
REMARK  151  A    between atoms: _359  and  _362
REMARK  152  A    between atoms: _362  and  _363
REMARK  153  A    between atoms: _363  and  _364
REMARK  154  A    between atoms: _369  and  _371
REMARK  155  A    between atoms: _371  and  _372
REMARK  156  A    between atoms: _371  and  _374
REMARK  157  A    between atoms: _374  and  _375
REMARK  158  A    between atoms: _375  and  _376
REMARK  159  A    between atoms: _376  and  _377
REMARK  160  A    between atoms: _387  and  _388
REMARK  161  A    between atoms: _393  and  _395
REMARK  162  A    between atoms: _395  and  _396
REMARK  163  A    between atoms: _398  and  _400
REMARK  164  A    between atoms: _400  and  _401
REMARK  165  A    between atoms: _400  and  _403
REMARK  166  A    between atoms: _403  and  _404
REMARK  167  A    between atoms: _407  and  _409
REMARK  168  A    between atoms: _409  and  _410
REMARK  169  A    between atoms: _409  and  _412
REMARK  170  A    between atoms: _412  and  _413
REMARK  171  A    between atoms: _418  and  _419
REMARK  172  A    between atoms: _423  and  _424
REMARK  173  A    between atoms: _427  and  _428
REMARK  174  A    between atoms: _433  and  _435
REMARK  175  A    between atoms: _435  and  _436
REMARK  176  A    between atoms: _435  and  _438
REMARK  177  A    between atoms: _438  and  _439
REMARK  178  A    between atoms: _442  and  _444
REMARK  179  A    between atoms: _444  and  _445
REMARK  180  A    between atoms: _444  and  _447
REMARK  181  A    between atoms: _447  and  _448
REMARK  182  A    between atoms: _448  and  _449
REMARK  183  A    between atoms: _449  and  _450
REMARK  184  A    between atoms: _450  and  _451
REMARK  185  A    between atoms: _455  and  _457
REMARK  186  A    between atoms: _457  and  _458
REMARK  187  A    between atoms: _457  and  _460
REMARK  188  A    between atoms: _460  and  _461
REMARK  189  A    between atoms: _467  and  _469
REMARK  190  A    between atoms: _469  and  _470
REMARK  191  A    between atoms: _469  and  _472
REMARK  192  A    between atoms: _472  and  _473
REMARK  193  A    between atoms: _478  and  _479
REMARK  194  A    between atoms: _481  and  _483
REMARK  195  A    between atoms: _483  and  _484
REMARK  196  A    between atoms: _483  and  _486
REMARK  197  A    between atoms: _486  and  _487
REMARK  198  A    between atoms: _490  and  _492
REMARK  199  A    between atoms: _492  and  _493
REMARK  200  A    between atoms: _496  and  _498
REMARK  201  A    between atoms: _498  and  _499
REMARK  202  A    between atoms: _498  and  _501
REMARK  203  A    between atoms: _501  and  _502
REMARK  204  A    between atoms: _502  and  _503
REMARK  205  A    between atoms: _508  and  _510
REMARK  206  A    between atoms: _510  and  _511
REMARK  207  A    between atoms: _510  and  _513
REMARK  208  A    between atoms: _513  and  _514
REMARK                            x       y       z     vdW  Elec       q    Type
REMARK                         _______ _______ _______ _____ _____    ______ ____
ROOT
ATOM      1  CA  GLN A   3      54.726 -14.835  -1.892  0.00  0.00    +0.149 C 
ENDROOT
BRANCH   1   3
ATOM      2  C   ALA A   2      53.797 -16.674  -0.487  0.00  0.00    +0.241 C 
ATOM      3  N   GLN A   3      53.864 -15.371  -0.830  0.00  0.00    -0.297 N 
ATOM      4  H   GLN A   3      53.265 -14.701  -0.307  0.00  0.00    +0.150 HD
ATOM      5  O   ALA A   2      54.476 -17.545  -1.023  0.00  0.00    -0.273 OA
BRANCH   2   6
ATOM      6  CA  ALA A   2      52.835 -17.062   0.646  0.00  0.00    +0.149 C 
ATOM      7  CB  ALA A   2      51.467 -17.403   0.075  0.00  0.00    +0.031 C 
BRANCH   6  10
ATOM      8  C   THR A   1      53.728 -15.539   2.395  0.00  0.00    +0.241 C 
ATOM      9  O   THR A   1      54.883 -15.960   2.298  0.00  0.00    -0.274 OA
ATOM     10  N   ALA A   2      52.708 -16.006   1.652  0.00  0.00    -0.297 N 
ATOM     11  H   ALA A   2      51.767 -15.589   1.802  0.00  0.00    +0.150 HD
BRANCH   8  12
ATOM     12  CA  THR A   1      53.413 -14.416   3.381  0.00  0.00    +0.172 C 
BRANCH  12  13
ATOM     13  N   THR A   1      54.383 -14.461   4.490  0.00  0.00    -0.236 NA
ATOM     14  H   THR A   1      55.389 -14.580   4.253  0.00  0.00    +0.142 HD
ENDBRANCH  12  13
BRANCH  12  15
ATOM     15  CB  THR A   1      53.346 -13.051   2.649  0.00  0.00    +0.135 C 
ATOM     16  CG2 THR A   1      53.261 -11.851   3.581  0.00  0.00    +0.034 C 
BRANCH  15  17
ATOM     17  OG1 THR A   1      54.425 -12.920   1.726  0.00  0.00    -0.383 OA
ATOM     18  HG1 THR A   1      54.363 -12.043   1.270  0.00  0.00    +0.210 HD
ENDBRANCH  15  17
ENDBRANCH  12  15
ENDBRANCH   8  12
ENDBRANCH   6  10
ENDBRANCH   2   6
ENDBRANCH   1   3
BRANCH   1  19
ATOM     19  C   GLN A   3      56.207 -14.852  -1.515  0.00  0.00    +0.241 C 
ATOM     20  N   ILE A   4      56.522 -14.665  -0.216  0.00  0.00    -0.298 N 
ATOM     21  H   ILE A   4      55.753 -14.481   0.459  0.00  0.00    +0.150 HD
ATOM     22  O   GLN A   3      57.050 -15.026  -2.397  0.00  0.00    -0.273 OA
BRANCH  20  23
ATOM     23  CA  ILE A   4      57.900 -14.709   0.288  0.00  0.00    +0.137 C 
BRANCH  23  24
ATOM     24  CB  ILE A   4      58.047 -14.038   1.692  0.00  0.00    +0.026 C 
ATOM     25  CG2 ILE A   4      59.460 -14.264   2.283  0.00  0.00    +0.002 C 
BRANCH  24  26
ATOM     26  CG1 ILE A   4      57.716 -12.528   1.627  0.00  0.00    +0.002 C 
ATOM     27  CD1 ILE A   4      57.320 -11.856   2.966  0.00  0.00    +0.000 C 
ENDBRANCH  24  26
ENDBRANCH  23  24
BRANCH  23  28
ATOM     28  C   ILE A   4      58.364 -16.175   0.264  0.00  0.00    +0.227 C 
ATOM     29  O   ILE A   4      59.470 -16.464  -0.192  0.00  0.00    -0.286 OA
ENDBRANCH  23  28
ENDBRANCH  20  23
ENDBRANCH   1  19
BRANCH   1  30
ATOM     30  CB  GLN A   3      54.290 -13.423  -2.314  0.00  0.00    +0.039 C 
BRANCH  30  31
ATOM     31  CG  GLN A   3      52.940 -13.378  -3.032  0.00  0.00    +0.087 C 
BRANCH  31  32
ATOM     32  CD  GLN A   3      51.756 -13.465  -2.094  0.00  0.00    +0.219 C 
ATOM     33  OE1 GLN A   3      51.731 -12.862  -1.015  0.00  0.00    -0.275 OA
ATOM     34  NE2 GLN A   3      50.741 -14.217  -2.492  0.00  0.00    -0.329 N 
ATOM     35 HE21 GLN A   3      49.897 -14.311  -1.892  0.00  0.00    +0.145 HD
ATOM     36 HE22 GLN A   3      50.788 -14.714  -3.405  0.00  0.00    +0.145 HD
ENDBRANCH  31  32
ENDBRANCH  30  31
ENDBRANCH   1  30
TORSDOF 15
REMARK  Name = ../refined-set-2016/3v7t/3v7t_pocket.pdb
REMARK  208 active torsions:
REMARK  status: ('A' for Active; 'I' for Inactive)
REMARK    1  A    between atoms: _1  and  _5
REMARK    2  A    between atoms: _5  and  _6
REMARK    3  A    between atoms: _5  and  _8
REMARK    4  A    between atoms: _8  and  _9
REMARK    5  A    between atoms: _12  and  _14
REMARK    6  A    between atoms: _14  and  _15
REMARK    7  A    between atoms: _14  and  _17
REMARK    8  A    between atoms: _20  and  _22
REMARK    9  A    between atoms: _22  and  _23
REMARK   10  A    between atoms: _22  and  _25
REMARK   11  A    between atoms: _25  and  _26
REMARK   12  A    between atoms: _32  and  _34
REMARK   13  A    between atoms: _34  and  _35
REMARK   14  A    between atoms: _34  and  _37
REMARK   15  A    between atoms: _37  and  _38
REMARK   16  A    between atoms: _38  and  _56
REMARK   17  A    between atoms: _39  and  _41
REMARK   18  A    between atoms: _41  and  _42
REMARK   19  A    between atoms: _41  and  _44
REMARK   20  A    between atoms: _44  and  _45
REMARK   21  A    between atoms: _50  and  _52
REMARK   22  A    between atoms: _52  and  _53
REMARK   23  A    between atoms: _52  and  _55
REMARK   24  A    between atoms: _55  and  _56
REMARK   25  A    between atoms: _57  and  _59
REMARK   26  A    between atoms: _59  and  _60
REMARK   27  A    between atoms: _59  and  _62
REMARK   28  A    between atoms: _62  and  _63
REMARK   29  A    between atoms: _66  and  _68
REMARK   30  A    between atoms: _68  and  _69
REMARK   31  A    between atoms: _72  and  _74
REMARK   32  A    between atoms: _74  and  _75
REMARK   33  A    between atoms: _74  and  _77
REMARK   34  A    between atoms: _77  and  _78
REMARK   35  A    between atoms: _78  and  _79
REMARK   36  A    between atoms: _84  and  _86
REMARK   37  A    between atoms: _86  and  _87
REMARK   38  A    between atoms: _86  and  _89
REMARK   39  A    between atoms: _89  and  _90
REMARK   40  A    between atoms: _93  and  _95
REMARK   41  A    between atoms: _95  and  _96
REMARK   42  A    between atoms: _95  and  _98
REMARK   43  A    between atoms: _98  and  _99
REMARK   44  A    between atoms: _102  and  _104
REMARK   45  A    between atoms: _104  and  _105
REMARK   46  A    between atoms: _104  and  _107
REMARK   47  A    between atoms: _110  and  _112
REMARK   48  A    between atoms: _112  and  _113
REMARK   49  A    between atoms: _112  and  _115
REMARK   50  A    between atoms: _115  and  _116
REMARK   51  A    between atoms: _119  and  _121
REMARK   52  A    between atoms: _121  and  _122
REMARK   53  A    between atoms: _121  and  _124
REMARK   54  A    between atoms: _124  and  _125
REMARK   55  A    between atoms: _130  and  _132
REMARK   56  A    between atoms: _132  and  _133
REMARK   57  A    between atoms: _132  and  _135
REMARK   58  A    between atoms: _135  and  _136
REMARK   59  A    between atoms: _139  and  _141
REMARK   60  A    between atoms: _141  and  _142
REMARK   61  A    between atoms: _141  and  _144
REMARK   62  A    between atoms: _144  and  _145
REMARK   63  A    between atoms: _150  and  _151
REMARK   64  A    between atoms: _153  and  _155
REMARK   65  A    between atoms: _155  and  _156
REMARK   66  A    between atoms: _159  and  _161
REMARK   67  A    between atoms: _161  and  _162
REMARK   68  A    between atoms: _161  and  _164
REMARK   69  A    between atoms: _164  and  _165
REMARK   70  A    between atoms: _168  and  _170
REMARK   71  A    between atoms: _170  and  _171
REMARK   72  A    between atoms: _170  and  _173
REMARK   73  A    between atoms: _173  and  _174
REMARK   74  A    between atoms: _177  and  _179
REMARK   75  A    between atoms: _179  and  _180
REMARK   76  A    between atoms: _183  and  _185
REMARK   77  A    between atoms: _185  and  _186
REMARK   78  A    between atoms: _188  and  _190
REMARK   79  A    between atoms: _190  and  _191
REMARK   80  A    between atoms: _190  and  _193
REMARK   81  A    between atoms: _193  and  _194
REMARK   82  A    between atoms: _199  and  _201
REMARK   83  A    between atoms: _201  and  _202
REMARK   84  A    between atoms: _201  and  _204
REMARK   85  A    between atoms: _204  and  _205
REMARK   86  A    between atoms: _205  and  _206
REMARK   87  A    between atoms: _206  and  _207
REMARK   88  A    between atoms: _216  and  _218
REMARK   89  A    between atoms: _218  and  _219
REMARK   90  A    between atoms: _218  and  _221
REMARK   91  A    between atoms: _221  and  _222
REMARK   92  A    between atoms: _225  and  _227
REMARK   93  A    between atoms: _227  and  _228
REMARK   94  A    between atoms: _227  and  _230
REMARK   95  A    between atoms: _230  and  _231
REMARK   96  A    between atoms: _233  and  _235
REMARK   97  A    between atoms: _235  and  _236
REMARK   98  A    between atoms: _235  and  _238
REMARK   99  A    between atoms: _238  and  _239
REMARK  100  A    between atoms: _239  and  _350
REMARK  101  A    between atoms: _240  and  _242
REMARK  102  A    between atoms: _242  and  _243
REMARK  103  A    between atoms: _242  and  _245
REMARK  104  A    between atoms: _245  and  _246
REMARK  105  A    between atoms: _246  and  _247
REMARK  106  A    between atoms: _252  and  _254
REMARK  107  A    between atoms: _254  and  _255
REMARK  108  A    between atoms: _257  and  _259
REMARK  109  A    between atoms: _259  and  _260
REMARK  110  A    between atoms: _259  and  _262
REMARK  111  A    between atoms: _262  and  _263
REMARK  112  A    between atoms: _266  and  _268
REMARK  113  A    between atoms: _268  and  _269
REMARK  114  A    between atoms: _268  and  _271
REMARK  115  A    between atoms: _271  and  _272
REMARK  116  A    between atoms: _274  and  _276
REMARK  117  A    between atoms: _276  and  _277
REMARK  118  A    between atoms: _279  and  _281
REMARK  119  A    between atoms: _281  and  _282
REMARK  120  A    between atoms: _284  and  _286
REMARK  121  A    between atoms: _286  and  _287
REMARK  122  A    between atoms: _286  and  _289
REMARK  123  A    between atoms: _292  and  _294
REMARK  124  A    between atoms: _294  and  _295
REMARK  125  A    between atoms: _294  and  _297
REMARK  126  A    between atoms: _300  and  _302
REMARK  127  A    between atoms: _302  and  _303
REMARK  128  A    between atoms: _302  and  _305
REMARK  129  A    between atoms: _305  and  _306
REMARK  130  A    between atoms: _308  and  _310
REMARK  131  A    between atoms: _310  and  _311
REMARK  132  A    between atoms: _310  and  _313
REMARK  133  A    between atoms: _313  and  _314
REMARK  134  A    between atoms: _324  and  _326
REMARK  135  A    between atoms: _326  and  _327
REMARK  136  A    between atoms: _329  and  _331
REMARK  137  A    between atoms: _331  and  _332
REMARK  138  A    between atoms: _331  and  _334
REMARK  139  A    between atoms: _334  and  _335
REMARK  140  A    between atoms: _335  and  _336
REMARK  141  A    between atoms: _339  and  _341
REMARK  142  A    between atoms: _341  and  _342
REMARK  143  A    between atoms: _344  and  _346
REMARK  144  A    between atoms: _346  and  _347
REMARK  145  A    between atoms: _346  and  _349
REMARK  146  A    between atoms: _349  and  _350
REMARK  147  A    between atoms: _351  and  _353
REMARK  148  A    between atoms: _353  and  _354
REMARK  149  A    between atoms: _357  and  _359
REMARK  150  A    between atoms: _359  and  _360
REMARK  151  A    between atoms: _359  and  _362
REMARK  152  A    between atoms: _362  and  _363
REMARK  153  A    between atoms: _363  and  _364
REMARK  154  A    between atoms: _369  and  _371
REMARK  155  A    between atoms: _371  and  _372
REMARK  156  A    between atoms: _371  and  _374
REMARK  157  A    between atoms: _374  and  _375
REMARK  158  A    between atoms: _375  and  _376
REMARK  159  A    between atoms: _376  and  _377
REMARK  160  A    between atoms: _387  and  _388
REMARK  161  A    between atoms: _393  and  _395
REMARK  162  A    between atoms: _395  and  _396
REMARK  163  A    between atoms: _398  and  _400
REMARK  164  A    between atoms: _400  and  _401
REMARK  165  A    between atoms: _400  and  _403
REMARK  166  A    between atoms: _403  and  _404
REMARK  167  A    between atoms: _407  and  _409
REMARK  168  A    between atoms: _409  and  _410
REMARK  169  A    between atoms: _409  and  _412
REMARK  170  A    between atoms: _412  and  _413
REMARK  171  A    between atoms: _418  and  _419
REMARK  172  A    between atoms: _423  and  _424
REMARK  173  A    between atoms: _427  and  _428
REMARK  174  A    between atoms: _433  and  _435
REMARK  175  A    between atoms: _435  and  _436
REMARK  176  A    between atoms: _435  and  _438
REMARK  177  A    between atoms: _438  and  _439
REMARK  178  A    between atoms: _442  and  _444
REMARK  179  A    between atoms: _444  and  _445
REMARK  180  A    between atoms: _444  and  _447
REMARK  181  A    between atoms: _447  and  _448
REMARK  182  A    between atoms: _448  and  _449
REMARK  183  A    between atoms: _449  and  _450
REMARK  184  A    between atoms: _450  and  _451
REMARK  185  A    between atoms: _455  and  _457
REMARK  186  A    between atoms: _457  and  _458
REMARK  187  A    between atoms: _457  and  _460
REMARK  188  A    between atoms: _460  and  _461
REMARK  189  A    between atoms: _467  and  _469
REMARK  190  A    between atoms: _469  and  _470
REMARK  191  A    between atoms: _469  and  _472
REMARK  192  A    between atoms: _472  and  _473
REMARK  193  A    between atoms: _478  and  _479
REMARK  194  A    between atoms: _481  and  _483
REMARK  195  A    between atoms: _483  and  _484
REMARK  196  A    between atoms: _483  and  _486
REMARK  197  A    between atoms: _486  and  _487
REMARK  198  A    between atoms: _490  and  _492
REMARK  199  A    between atoms: _492  and  _493
REMARK  200  A    between atoms: _496  and  _498
REMARK  201  A    between atoms: _498  and  _499
REMARK  202  A    between atoms: _498  and  _501
REMARK  203  A    between atoms: _501  and  _502
REMARK  204  A    between atoms: _502  and  _503
REMARK  205  A    between atoms: _508  and  _510
REMARK  206  A    between atoms: _510  and  _511
REMARK  207  A    between atoms: _510  and  _513
REMARK  208  A    between atoms: _513  and  _514
REMARK                            x       y       z     vdW  Elec       q    Type
REMARK                         _______ _______ _______ _____ _____    ______ ____
ROOT
ATOM      1  CA  ASP A   1      54.053 -21.640   3.167  0.00  0.00    +0.144 C 
ENDROOT
BRANCH   1   2
ATOM      2  N   ASP A   1      55.483 -21.454   2.916  0.00  0.00    -0.239 NA
ATOM      3  H   ASP A   1      55.794 -21.311   1.934  0.00  0.00    +0.142 HD
ENDBRANCH   1   2
BRANCH   1   4
ATOM      4  C   ASP A   1      53.751 -23.120   3.436  0.00  0.00    +0.225 C 
ATOM      5  O   ASP A   1      53.141 -23.818   2.619  0.00  0.00    -0.287 OA
ENDBRANCH   1   4
BRANCH   1   6
ATOM      6  CB  ASP A   1      53.210 -21.058   2.014  0.00  0.00    +0.139 C 
BRANCH   6   7
ATOM      7  CG  ASP A   1      51.727 -20.927   2.314  0.00  0.00    +0.367 C 
ATOM      8  OD2 ASP A   1      51.348 -21.007   3.506  0.00  0.00    -0.246 OA
ATOM      9  OD1 ASP A   1      50.951 -20.714   1.366  0.00  0.00    -0.246 OA
ENDBRANCH   6   7
ENDBRANCH   1   6
TORSDOF 4
REMARK  Name = ../refined-set-2016/3v7t/3v7t_pocket.pdb
REMARK  208 active torsions:
REMARK  status: ('A' for Active; 'I' for Inactive)
REMARK    1  A    between atoms: _1  and  _5
REMARK    2  A    between atoms: _5  and  _6
REMARK    3  A    between atoms: _5  and  _8
REMARK    4  A    between atoms: _8  and  _9
REMARK    5  A    between atoms: _12  and  _14
REMARK    6  A    between atoms: _14  and  _15
REMARK    7  A    between atoms: _14  and  _17
REMARK    8  A    between atoms: _20  and  _22
REMARK    9  A    between atoms: _22  and  _23
REMARK   10  A    between atoms: _22  and  _25
REMARK   11  A    between atoms: _25  and  _26
REMARK   12  A    between atoms: _32  and  _34
REMARK   13  A    between atoms: _34  and  _35
REMARK   14  A    between atoms: _34  and  _37
REMARK   15  A    between atoms: _37  and  _38
REMARK   16  A    between atoms: _38  and  _56
REMARK   17  A    between atoms: _39  and  _41
REMARK   18  A    between atoms: _41  and  _42
REMARK   19  A    between atoms: _41  and  _44
REMARK   20  A    between atoms: _44  and  _45
REMARK   21  A    between atoms: _50  and  _52
REMARK   22  A    between atoms: _52  and  _53
REMARK   23  A    between atoms: _52  and  _55
REMARK   24  A    between atoms: _55  and  _56
REMARK   25  A    between atoms: _57  and  _59
REMARK   26  A    between atoms: _59  and  _60
REMARK   27  A    between atoms: _59  and  _62
REMARK   28  A    between atoms: _62  and  _63
REMARK   29  A    between atoms: _66  and  _68
REMARK   30  A    between atoms: _68  and  _69
REMARK   31  A    between atoms: _72  and  _74
REMARK   32  A    between atoms: _74  and  _75
REMARK   33  A    between atoms: _74  and  _77
REMARK   34  A    between atoms: _77  and  _78
REMARK   35  A    between atoms: _78  and  _79
REMARK   36  A    between atoms: _84  and  _86
REMARK   37  A    between atoms: _86  and  _87
REMARK   38  A    between atoms: _86  and  _89
REMARK   39  A    between atoms: _89  and  _90
REMARK   40  A    between atoms: _93  and  _95
REMARK   41  A    between atoms: _95  and  _96
REMARK   42  A    between atoms: _95  and  _98
REMARK   43  A    between atoms: _98  and  _99
REMARK   44  A    between atoms: _102  and  _104
REMARK   45  A    between atoms: _104  and  _105
REMARK   46  A    between atoms: _104  and  _107
REMARK   47  A    between atoms: _110  and  _112
REMARK   48  A    between atoms: _112  and  _113
REMARK   49  A    between atoms: _112  and  _115
REMARK   50  A    between atoms: _115  and  _116
REMARK   51  A    between atoms: _119  and  _121
REMARK   52  A    between atoms: _121  and  _122
REMARK   53  A    between atoms: _121  and  _124
REMARK   54  A    between atoms: _124  and  _125
REMARK   55  A    between atoms: _130  and  _132
REMARK   56  A    between atoms: _132  and  _133
REMARK   57  A    between atoms: _132  and  _135
REMARK   58  A    between atoms: _135  and  _136
REMARK   59  A    between atoms: _139  and  _141
REMARK   60  A    between atoms: _141  and  _142
REMARK   61  A    between atoms: _141  and  _144
REMARK   62  A    between atoms: _144  and  _145
REMARK   63  A    between atoms: _150  and  _151
REMARK   64  A    between atoms: _153  and  _155
REMARK   65  A    between atoms: _155  and  _156
REMARK   66  A    between atoms: _159  and  _161
REMARK   67  A    between atoms: _161  and  _162
REMARK   68  A    between atoms: _161  and  _164
REMARK   69  A    between atoms: _164  and  _165
REMARK   70  A    between atoms: _168  and  _170
REMARK   71  A    between atoms: _170  and  _171
REMARK   72  A    between atoms: _170  and  _173
REMARK   73  A    between atoms: _173  and  _174
REMARK   74  A    between atoms: _177  and  _179
REMARK   75  A    between atoms: _179  and  _180
REMARK   76  A    between atoms: _183  and  _185
REMARK   77  A    between atoms: _185  and  _186
REMARK   78  A    between atoms: _188  and  _190
REMARK   79  A    between atoms: _190  and  _191
REMARK   80  A    between atoms: _190  and  _193
REMARK   81  A    between atoms: _193  and  _194
REMARK   82  A    between atoms: _199  and  _201
REMARK   83  A    between atoms: _201  and  _202
REMARK   84  A    between atoms: _201  and  _204
REMARK   85  A    between atoms: _204  and  _205
REMARK   86  A    between atoms: _205  and  _206
REMARK   87  A    between atoms: _206  and  _207
REMARK   88  A    between atoms: _216  and  _218
REMARK   89  A    between atoms: _218  and  _219
REMARK   90  A    between atoms: _218  and  _221
REMARK   91  A    between atoms: _221  and  _222
REMARK   92  A    between atoms: _225  and  _227
REMARK   93  A    between atoms: _227  and  _228
REMARK   94  A    between atoms: _227  and  _230
REMARK   95  A    between atoms: _230  and  _231
REMARK   96  A    between atoms: _233  and  _235
REMARK   97  A    between atoms: _235  and  _236
REMARK   98  A    between atoms: _235  and  _238
REMARK   99  A    between atoms: _238  and  _239
REMARK  100  A    between atoms: _239  and  _350
REMARK  101  A    between atoms: _240  and  _242
REMARK  102  A    between atoms: _242  and  _243
REMARK  103  A    between atoms: _242  and  _245
REMARK  104  A    between atoms: _245  and  _246
REMARK  105  A    between atoms: _246  and  _247
REMARK  106  A    between atoms: _252  and  _254
REMARK  107  A    between atoms: _254  and  _255
REMARK  108  A    between atoms: _257  and  _259
REMARK  109  A    between atoms: _259  and  _260
REMARK  110  A    between atoms: _259  and  _262
REMARK  111  A    between atoms: _262  and  _263
REMARK  112  A    between atoms: _266  and  _268
REMARK  113  A    between atoms: _268  and  _269
REMARK  114  A    between atoms: _268  and  _271
REMARK  115  A    between atoms: _271  and  _272
REMARK  116  A    between atoms: _274  and  _276
REMARK  117  A    between atoms: _276  and  _277
REMARK  118  A    between atoms: _279  and  _281
REMARK  119  A    between atoms: _281  and  _282
REMARK  120  A    between atoms: _284  and  _286
REMARK  121  A    between atoms: _286  and  _287
REMARK  122  A    between atoms: _286  and  _289
REMARK  123  A    between atoms: _292  and  _294
REMARK  124  A    between atoms: _294  and  _295
REMARK  125  A    between atoms: _294  and  _297
REMARK  126  A    between atoms: _300  and  _302
REMARK  127  A    between atoms: _302  and  _303
REMARK  128  A    between atoms: _302  and  _305
REMARK  129  A    between atoms: _305  and  _306
REMARK  130  A    between atoms: _308  and  _310
REMARK  131  A    between atoms: _310  and  _311
REMARK  132  A    between atoms: _310  and  _313
REMARK  133  A    between atoms: _313  and  _314
REMARK  134  A    between atoms: _324  and  _326
REMARK  135  A    between atoms: _326  and  _327
REMARK  136  A    between atoms: _329  and  _331
REMARK  137  A    between atoms: _331  and  _332
REMARK  138  A    between atoms: _331  and  _334
REMARK  139  A    between atoms: _334  and  _335
REMARK  140  A    between atoms: _335  and  _336
REMARK  141  A    between atoms: _339  and  _341
REMARK  142  A    between atoms: _341  and  _342
REMARK  143  A    between atoms: _344  and  _346
REMARK  144  A    between atoms: _346  and  _347
REMARK  145  A    between atoms: _346  and  _349
REMARK  146  A    between atoms: _349  and  _350
REMARK  147  A    between atoms: _351  and  _353
REMARK  148  A    between atoms: _353  and  _354
REMARK  149  A    between atoms: _357  and  _359
REMARK  150  A    between atoms: _359  and  _360
REMARK  151  A    between atoms: _359  and  _362
REMARK  152  A    between atoms: _362  and  _363
REMARK  153  A    between atoms: _363  and  _364
REMARK  154  A    between atoms: _369  and  _371
REMARK  155  A    between atoms: _371  and  _372
REMARK  156  A    between atoms: _371  and  _374
REMARK  157  A    between atoms: _374  and  _375
REMARK  158  A    between atoms: _375  and  _376
REMARK  159  A    between atoms: _376  and  _377
REMARK  160  A    between atoms: _387  and  _388
REMARK  161  A    between atoms: _393  and  _395
REMARK  162  A    between atoms: _395  and  _396
REMARK  163  A    between atoms: _398  and  _400
REMARK  164  A    between atoms: _400  and  _401
REMARK  165  A    between atoms: _400  and  _403
REMARK  166  A    between atoms: _403  and  _404
REMARK  167  A    between atoms: _407  and  _409
REMARK  168  A    between atoms: _409  and  _410
REMARK  169  A    between atoms: _409  and  _412
REMARK  170  A    between atoms: _412  and  _413
REMARK  171  A    between atoms: _418  and  _419
REMARK  172  A    between atoms: _423  and  _424
REMARK  173  A    between atoms: _427  and  _428
REMARK  174  A    between atoms: _433  and  _435
REMARK  175  A    between atoms: _435  and  _436
REMARK  176  A    between atoms: _435  and  _438
REMARK  177  A    between atoms: _438  and  _439
REMARK  178  A    between atoms: _442  and  _444
REMARK  179  A    between atoms: _444  and  _445
REMARK  180  A    between atoms: _444  and  _447
REMARK  181  A    between atoms: _447  and  _448
REMARK  182  A    between atoms: _448  and  _449
REMARK  183  A    between atoms: _449  and  _450
REMARK  184  A    between atoms: _450  and  _451
REMARK  185  A    between atoms: _455  and  _457
REMARK  186  A    between atoms: _457  and  _458
REMARK  187  A    between atoms: _457  and  _460
REMARK  188  A    between atoms: _460  and  _461
REMARK  189  A    between atoms: _467  and  _469
REMARK  190  A    between atoms: _469  and  _470
REMARK  191  A    between atoms: _469  and  _472
REMARK  192  A    between atoms: _472  and  _473
REMARK  193  A    between atoms: _478  and  _479
REMARK  194  A    between atoms: _481  and  _483
REMARK  195  A    between atoms: _483  and  _484
REMARK  196  A    between atoms: _483  and  _486
REMARK  197  A    between atoms: _486  and  _487
REMARK  198  A    between atoms: _490  and  _492
REMARK  199  A    between atoms: _492  and  _493
REMARK  200  A    between atoms: _496  and  _498
REMARK  201  A    between atoms: _498  and  _499
REMARK  202  A    between atoms: _498  and  _501
REMARK  203  A    between atoms: _501  and  _502
REMARK  204  A    between atoms: _502  and  _503
REMARK  205  A    between atoms: _508  and  _510
REMARK  206  A    between atoms: _510  and  _511
REMARK  207  A    between atoms: _510  and  _513
REMARK  208  A    between atoms: _513  and  _514
REMARK                            x       y       z     vdW  Elec       q    Type
REMARK                         _______ _______ _______ _____ _____    ______ ____
ROOT
ATOM      1  CA  VAL A   1      44.951 -31.406  -7.053  0.00  0.00    +0.133 C 
ENDROOT
BRANCH   1   2
ATOM      2  CB  VAL A   1      45.474 -29.951  -7.241  0.00  0.00    +0.023 C 
ATOM      3  CG2 VAL A   1      45.419 -29.163  -5.939  0.00  0.00    +0.002 C 
ATOM      4  CG1 VAL A   1      44.755 -29.211  -8.364  0.00  0.00    +0.002 C 
ENDBRANCH   1   2
BRANCH   1   5
ATOM      5  N   VAL A   1      45.182 -32.285  -8.200  0.00  0.00    -0.239 NA
ATOM      6  H   VAL A   1      44.592 -32.146  -9.045  0.00  0.00    +0.142 HD
ENDBRANCH   1   5
BRANCH   1   7
ATOM      7  C   VAL A   1      43.483 -31.527  -6.608  0.00  0.00    +0.224 C 
ATOM      8  O   VAL A   1      42.586 -31.584  -7.454  0.00  0.00    -0.287 OA
ENDBRANCH   1   7
TORSDOF 3
REMARK  Name = ../refined-set-2016/3v7t/3v7t_pocket.pdb
REMARK  208 active torsions:
REMARK  status: ('A' for Active; 'I' for Inactive)
REMARK    1  A    between atoms: _1  and  _5
REMARK    2  A    between atoms: _5  and  _6
REMARK    3  A    between atoms: _5  and  _8
REMARK    4  A    between atoms: _8  and  _9
REMARK    5  A    between atoms: _12  and  _14
REMARK    6  A    between atoms: _14  and  _15
REMARK    7  A    between atoms: _14  and  _17
REMARK    8  A    between atoms: _20  and  _22
REMARK    9  A    between atoms: _22  and  _23
REMARK   10  A    between atoms: _22  and  _25
REMARK   11  A    between atoms: _25  and  _26
REMARK   12  A    between atoms: _32  and  _34
REMARK   13  A    between atoms: _34  and  _35
REMARK   14  A    between atoms: _34  and  _37
REMARK   15  A    between atoms: _37  and  _38
REMARK   16  A    between atoms: _38  and  _56
REMARK   17  A    between atoms: _39  and  _41
REMARK   18  A    between atoms: _41  and  _42
REMARK   19  A    between atoms: _41  and  _44
REMARK   20  A    between atoms: _44  and  _45
REMARK   21  A    between atoms: _50  and  _52
REMARK   22  A    between atoms: _52  and  _53
REMARK   23  A    between atoms: _52  and  _55
REMARK   24  A    between atoms: _55  and  _56
REMARK   25  A    between atoms: _57  and  _59
REMARK   26  A    between atoms: _59  and  _60
REMARK   27  A    between atoms: _59  and  _62
REMARK   28  A    between atoms: _62  and  _63
REMARK   29  A    between atoms: _66  and  _68
REMARK   30  A    between atoms: _68  and  _69
REMARK   31  A    between atoms: _72  and  _74
REMARK   32  A    between atoms: _74  and  _75
REMARK   33  A    between atoms: _74  and  _77
REMARK   34  A    between atoms: _77  and  _78
REMARK   35  A    between atoms: _78  and  _79
REMARK   36  A    between atoms: _84  and  _86
REMARK   37  A    between atoms: _86  and  _87
REMARK   38  A    between atoms: _86  and  _89
REMARK   39  A    between atoms: _89  and  _90
REMARK   40  A    between atoms: _93  and  _95
REMARK   41  A    between atoms: _95  and  _96
REMARK   42  A    between atoms: _95  and  _98
REMARK   43  A    between atoms: _98  and  _99
REMARK   44  A    between atoms: _102  and  _104
REMARK   45  A    between atoms: _104  and  _105
REMARK   46  A    between atoms: _104  and  _107
REMARK   47  A    between atoms: _110  and  _112
REMARK   48  A    between atoms: _112  and  _113
REMARK   49  A    between atoms: _112  and  _115
REMARK   50  A    between atoms: _115  and  _116
REMARK   51  A    between atoms: _119  and  _121
REMARK   52  A    between atoms: _121  and  _122
REMARK   53  A    between atoms: _121  and  _124
REMARK   54  A    between atoms: _124  and  _125
REMARK   55  A    between atoms: _130  and  _132
REMARK   56  A    between atoms: _132  and  _133
REMARK   57  A    between atoms: _132  and  _135
REMARK   58  A    between atoms: _135  and  _136
REMARK   59  A    between atoms: _139  and  _141
REMARK   60  A    between atoms: _141  and  _142
REMARK   61  A    between atoms: _141  and  _144
REMARK   62  A    between atoms: _144  and  _145
REMARK   63  A    between atoms: _150  and  _151
REMARK   64  A    between atoms: _153  and  _155
REMARK   65  A    between atoms: _155  and  _156
REMARK   66  A    between atoms: _159  and  _161
REMARK   67  A    between atoms: _161  and  _162
REMARK   68  A    between atoms: _161  and  _164
REMARK   69  A    between atoms: _164  and  _165
REMARK   70  A    between atoms: _168  and  _170
REMARK   71  A    between atoms: _170  and  _171
REMARK   72  A    between atoms: _170  and  _173
REMARK   73  A    between atoms: _173  and  _174
REMARK   74  A    between atoms: _177  and  _179
REMARK   75  A    between atoms: _179  and  _180
REMARK   76  A    between atoms: _183  and  _185
REMARK   77  A    between atoms: _185  and  _186
REMARK   78  A    between atoms: _188  and  _190
REMARK   79  A    between atoms: _190  and  _191
REMARK   80  A    between atoms: _190  and  _193
REMARK   81  A    between atoms: _193  and  _194
REMARK   82  A    between atoms: _199  and  _201
REMARK   83  A    between atoms: _201  and  _202
REMARK   84  A    between atoms: _201  and  _204
REMARK   85  A    between atoms: _204  and  _205
REMARK   86  A    between atoms: _205  and  _206
REMARK   87  A    between atoms: _206  and  _207
REMARK   88  A    between atoms: _216  and  _218
REMARK   89  A    between atoms: _218  and  _219
REMARK   90  A    between atoms: _218  and  _221
REMARK   91  A    between atoms: _221  and  _222
REMARK   92  A    between atoms: _225  and  _227
REMARK   93  A    between atoms: _227  and  _228
REMARK   94  A    between atoms: _227  and  _230
REMARK   95  A    between atoms: _230  and  _231
REMARK   96  A    between atoms: _233  and  _235
REMARK   97  A    between atoms: _235  and  _236
REMARK   98  A    between atoms: _235  and  _238
REMARK   99  A    between atoms: _238  and  _239
REMARK  100  A    between atoms: _239  and  _350
REMARK  101  A    between atoms: _240  and  _242
REMARK  102  A    between atoms: _242  and  _243
REMARK  103  A    between atoms: _242  and  _245
REMARK  104  A    between atoms: _245  and  _246
REMARK  105  A    between atoms: _246  and  _247
REMARK  106  A    between atoms: _252  and  _254
REMARK  107  A    between atoms: _254  and  _255
REMARK  108  A    between atoms: _257  and  _259
REMARK  109  A    between atoms: _259  and  _260
REMARK  110  A    between atoms: _259  and  _262
REMARK  111  A    between atoms: _262  and  _263
REMARK  112  A    between atoms: _266  and  _268
REMARK  113  A    between atoms: _268  and  _269
REMARK  114  A    between atoms: _268  and  _271
REMARK  115  A    between atoms: _271  and  _272
REMARK  116  A    between atoms: _274  and  _276
REMARK  117  A    between atoms: _276  and  _277
REMARK  118  A    between atoms: _279  and  _281
REMARK  119  A    between atoms: _281  and  _282
REMARK  120  A    between atoms: _284  and  _286
REMARK  121  A    between atoms: _286  and  _287
REMARK  122  A    between atoms: _286  and  _289
REMARK  123  A    between atoms: _292  and  _294
REMARK  124  A    between atoms: _294  and  _295
REMARK  125  A    between atoms: _294  and  _297
REMARK  126  A    between atoms: _300  and  _302
REMARK  127  A    between atoms: _302  and  _303
REMARK  128  A    between atoms: _302  and  _305
REMARK  129  A    between atoms: _305  and  _306
REMARK  130  A    between atoms: _308  and  _310
REMARK  131  A    between atoms: _310  and  _311
REMARK  132  A    between atoms: _310  and  _313
REMARK  133  A    between atoms: _313  and  _314
REMARK  134  A    between atoms: _324  and  _326
REMARK  135  A    between atoms: _326  and  _327
REMARK  136  A    between atoms: _329  and  _331
REMARK  137  A    between atoms: _331  and  _332
REMARK  138  A    between atoms: _331  and  _334
REMARK  139  A    between atoms: _334  and  _335
REMARK  140  A    between atoms: _335  and  _336
REMARK  141  A    between atoms: _339  and  _341
REMARK  142  A    between atoms: _341  and  _342
REMARK  143  A    between atoms: _344  and  _346
REMARK  144  A    between atoms: _346  and  _347
REMARK  145  A    between atoms: _346  and  _349
REMARK  146  A    between atoms: _349  and  _350
REMARK  147  A    between atoms: _351  and  _353
REMARK  148  A    between atoms: _353  and  _354
REMARK  149  A    between atoms: _357  and  _359
REMARK  150  A    between atoms: _359  and  _360
REMARK  151  A    between atoms: _359  and  _362
REMARK  152  A    between atoms: _362  and  _363
REMARK  153  A    between atoms: _363  and  _364
REMARK  154  A    between atoms: _369  and  _371
REMARK  155  A    between atoms: _371  and  _372
REMARK  156  A    between atoms: _371  and  _374
REMARK  157  A    between atoms: _374  and  _375
REMARK  158  A    between atoms: _375  and  _376
REMARK  159  A    between atoms: _376  and  _377
REMARK  160  A    between atoms: _387  and  _388
REMARK  161  A    between atoms: _393  and  _395
REMARK  162  A    between atoms: _395  and  _396
REMARK  163  A    between atoms: _398  and  _400
REMARK  164  A    between atoms: _400  and  _401
REMARK  165  A    between atoms: _400  and  _403
REMARK  166  A    between atoms: _403  and  _404
REMARK  167  A    between atoms: _407  and  _409
REMARK  168  A    between atoms: _409  and  _410
REMARK  169  A    between atoms: _409  and  _412
REMARK  170  A    between atoms: _412  and  _413
REMARK  171  A    between atoms: _418  and  _419
REMARK  172  A    between atoms: _423  and  _424
REMARK  173  A    between atoms: _427  and  _428
REMARK  174  A    between atoms: _433  and  _435
REMARK  175  A    between atoms: _435  and  _436
REMARK  176  A    between atoms: _435  and  _438
REMARK  177  A    between atoms: _438  and  _439
REMARK  178  A    between atoms: _442  and  _444
REMARK  179  A    between atoms: _444  and  _445
REMARK  180  A    between atoms: _444  and  _447
REMARK  181  A    between atoms: _447  and  _448
REMARK  182  A    between atoms: _448  and  _449
REMARK  183  A    between atoms: _449  and  _450
REMARK  184  A    between atoms: _450  and  _451
REMARK  185  A    between atoms: _455  and  _457
REMARK  186  A    between atoms: _457  and  _458
REMARK  187  A    between atoms: _457  and  _460
REMARK  188  A    between atoms: _460  and  _461
REMARK  189  A    between atoms: _467  and  _469
REMARK  190  A    between atoms: _469  and  _470
REMARK  191  A    between atoms: _469  and  _472
REMARK  192  A    between atoms: _472  and  _473
REMARK  193  A    between atoms: _478  and  _479
REMARK  194  A    between atoms: _481  and  _483
REMARK  195  A    between atoms: _483  and  _484
REMARK  196  A    between atoms: _483  and  _486
REMARK  197  A    between atoms: _486  and  _487
REMARK  198  A    between atoms: _490  and  _492
REMARK  199  A    between atoms: _492  and  _493
REMARK  200  A    between atoms: _496  and  _498
REMARK  201  A    between atoms: _498  and  _499
REMARK  202  A    between atoms: _498  and  _501
REMARK  203  A    between atoms: _501  and  _502
REMARK  204  A    between atoms: _502  and  _503
REMARK  205  A    between atoms: _508  and  _510
REMARK  206  A    between atoms: _510  and  _511
REMARK  207  A    between atoms: _510  and  _513
REMARK  208  A    between atoms: _513  and  _514
REMARK                            x       y       z     vdW  Elec       q    Type
REMARK                         _______ _______ _______ _____ _____    ______ ____
ROOT
ATOM      1  CA  ASP A   1      36.073 -22.095  -5.172  0.00  0.00    +0.144 C 
ENDROOT
BRANCH   1   2
ATOM      2  N   ASP A   1      36.818 -22.795  -4.125  0.00  0.00    -0.239 NA
ATOM      3  H   ASP A   1      37.473 -22.230  -3.547  0.00  0.00    +0.142 HD
ENDBRANCH   1   2
BRANCH   1   4
ATOM      4  C   ASP A   1      36.194 -22.750  -6.543  0.00  0.00    +0.225 C 
ATOM      5  O   ASP A   1      37.267 -23.235  -6.904  0.00  0.00    -0.287 OA
ENDBRANCH   1   4
BRANCH   1   6
ATOM      6  CB  ASP A   1      36.495 -20.616  -5.234  0.00  0.00    +0.139 C 
BRANCH   6   7
ATOM      7  CG  ASP A   1      36.060 -19.766  -4.049  0.00  0.00    +0.367 C 
ATOM      8  OD2 ASP A   1      35.616 -20.341  -3.030  0.00  0.00    -0.246 OA
ATOM      9  OD1 ASP A   1      36.176 -18.527  -4.136  0.00  0.00    -0.246 OA
ENDBRANCH   6   7
ENDBRANCH   1   6
TORSDOF 4
REMARK  Name = ../refined-set-2016/3v7t/3v7t_pocket.pdb
REMARK  208 active torsions:
REMARK  status: ('A' for Active; 'I' for Inactive)
REMARK    1  A    between atoms: _1  and  _5
REMARK    2  A    between atoms: _5  and  _6
REMARK    3  A    between atoms: _5  and  _8
REMARK    4  A    between atoms: _8  and  _9
REMARK    5  A    between atoms: _12  and  _14
REMARK    6  A    between atoms: _14  and  _15
REMARK    7  A    between atoms: _14  and  _17
REMARK    8  A    between atoms: _20  and  _22
REMARK    9  A    between atoms: _22  and  _23
REMARK   10  A    between atoms: _22  and  _25
REMARK   11  A    between atoms: _25  and  _26
REMARK   12  A    between atoms: _32  and  _34
REMARK   13  A    between atoms: _34  and  _35
REMARK   14  A    between atoms: _34  and  _37
REMARK   15  A    between atoms: _37  and  _38
REMARK   16  A    between atoms: _38  and  _56
REMARK   17  A    between atoms: _39  and  _41
REMARK   18  A    between atoms: _41  and  _42
REMARK   19  A    between atoms: _41  and  _44
REMARK   20  A    between atoms: _44  and  _45
REMARK   21  A    between atoms: _50  and  _52
REMARK   22  A    between atoms: _52  and  _53
REMARK   23  A    between atoms: _52  and  _55
REMARK   24  A    between atoms: _55  and  _56
REMARK   25  A    between atoms: _57  and  _59
REMARK   26  A    between atoms: _59  and  _60
REMARK   27  A    between atoms: _59  and  _62
REMARK   28  A    between atoms: _62  and  _63
REMARK   29  A    between atoms: _66  and  _68
REMARK   30  A    between atoms: _68  and  _69
REMARK   31  A    between atoms: _72  and  _74
REMARK   32  A    between atoms: _74  and  _75
REMARK   33  A    between atoms: _74  and  _77
REMARK   34  A    between atoms: _77  and  _78
REMARK   35  A    between atoms: _78  and  _79
REMARK   36  A    between atoms: _84  and  _86
REMARK   37  A    between atoms: _86  and  _87
REMARK   38  A    between atoms: _86  and  _89
REMARK   39  A    between atoms: _89  and  _90
REMARK   40  A    between atoms: _93  and  _95
REMARK   41  A    between atoms: _95  and  _96
REMARK   42  A    between atoms: _95  and  _98
REMARK   43  A    between atoms: _98  and  _99
REMARK   44  A    between atoms: _102  and  _104
REMARK   45  A    between atoms: _104  and  _105
REMARK   46  A    between atoms: _104  and  _107
REMARK   47  A    between atoms: _110  and  _112
REMARK   48  A    between atoms: _112  and  _113
REMARK   49  A    between atoms: _112  and  _115
REMARK   50  A    between atoms: _115  and  _116
REMARK   51  A    between atoms: _119  and  _121
REMARK   52  A    between atoms: _121  and  _122
REMARK   53  A    between atoms: _121  and  _124
REMARK   54  A    between atoms: _124  and  _125
REMARK   55  A    between atoms: _130  and  _132
REMARK   56  A    between atoms: _132  and  _133
REMARK   57  A    between atoms: _132  and  _135
REMARK   58  A    between atoms: _135  and  _136
REMARK   59  A    between atoms: _139  and  _141
REMARK   60  A    between atoms: _141  and  _142
REMARK   61  A    between atoms: _141  and  _144
REMARK   62  A    between atoms: _144  and  _145
REMARK   63  A    between atoms: _150  and  _151
REMARK   64  A    between atoms: _153  and  _155
REMARK   65  A    between atoms: _155  and  _156
REMARK   66  A    between atoms: _159  and  _161
REMARK   67  A    between atoms: _161  and  _162
REMARK   68  A    between atoms: _161  and  _164
REMARK   69  A    between atoms: _164  and  _165
REMARK   70  A    between atoms: _168  and  _170
REMARK   71  A    between atoms: _170  and  _171
REMARK   72  A    between atoms: _170  and  _173
REMARK   73  A    between atoms: _173  and  _174
REMARK   74  A    between atoms: _177  and  _179
REMARK   75  A    between atoms: _179  and  _180
REMARK   76  A    between atoms: _183  and  _185
REMARK   77  A    between atoms: _185  and  _186
REMARK   78  A    between atoms: _188  and  _190
REMARK   79  A    between atoms: _190  and  _191
REMARK   80  A    between atoms: _190  and  _193
REMARK   81  A    between atoms: _193  and  _194
REMARK   82  A    between atoms: _199  and  _201
REMARK   83  A    between atoms: _201  and  _202
REMARK   84  A    between atoms: _201  and  _204
REMARK   85  A    between atoms: _204  and  _205
REMARK   86  A    between atoms: _205  and  _206
REMARK   87  A    between atoms: _206  and  _207
REMARK   88  A    between atoms: _216  and  _218
REMARK   89  A    between atoms: _218  and  _219
REMARK   90  A    between atoms: _218  and  _221
REMARK   91  A    between atoms: _221  and  _222
REMARK   92  A    between atoms: _225  and  _227
REMARK   93  A    between atoms: _227  and  _228
REMARK   94  A    between atoms: _227  and  _230
REMARK   95  A    between atoms: _230  and  _231
REMARK   96  A    between atoms: _233  and  _235
REMARK   97  A    between atoms: _235  and  _236
REMARK   98  A    between atoms: _235  and  _238
REMARK   99  A    between atoms: _238  and  _239
REMARK  100  A    between atoms: _239  and  _350
REMARK  101  A    between atoms: _240  and  _242
REMARK  102  A    between atoms: _242  and  _243
REMARK  103  A    between atoms: _242  and  _245
REMARK  104  A    between atoms: _245  and  _246
REMARK  105  A    between atoms: _246  and  _247
REMARK  106  A    between atoms: _252  and  _254
REMARK  107  A    between atoms: _254  and  _255
REMARK  108  A    between atoms: _257  and  _259
REMARK  109  A    between atoms: _259  and  _260
REMARK  110  A    between atoms: _259  and  _262
REMARK  111  A    between atoms: _262  and  _263
REMARK  112  A    between atoms: _266  and  _268
REMARK  113  A    between atoms: _268  and  _269
REMARK  114  A    between atoms: _268  and  _271
REMARK  115  A    between atoms: _271  and  _272
REMARK  116  A    between atoms: _274  and  _276
REMARK  117  A    between atoms: _276  and  _277
REMARK  118  A    between atoms: _279  and  _281
REMARK  119  A    between atoms: _281  and  _282
REMARK  120  A    between atoms: _284  and  _286
REMARK  121  A    between atoms: _286  and  _287
REMARK  122  A    between atoms: _286  and  _289
REMARK  123  A    between atoms: _292  and  _294
REMARK  124  A    between atoms: _294  and  _295
REMARK  125  A    between atoms: _294  and  _297
REMARK  126  A    between atoms: _300  and  _302
REMARK  127  A    between atoms: _302  and  _303
REMARK  128  A    between atoms: _302  and  _305
REMARK  129  A    between atoms: _305  and  _306
REMARK  130  A    between atoms: _308  and  _310
REMARK  131  A    between atoms: _310  and  _311
REMARK  132  A    between atoms: _310  and  _313
REMARK  133  A    between atoms: _313  and  _314
REMARK  134  A    between atoms: _324  and  _326
REMARK  135  A    between atoms: _326  and  _327
REMARK  136  A    between atoms: _329  and  _331
REMARK  137  A    between atoms: _331  and  _332
REMARK  138  A    between atoms: _331  and  _334
REMARK  139  A    between atoms: _334  and  _335
REMARK  140  A    between atoms: _335  and  _336
REMARK  141  A    between atoms: _339  and  _341
REMARK  142  A    between atoms: _341  and  _342
REMARK  143  A    between atoms: _344  and  _346
REMARK  144  A    between atoms: _346  and  _347
REMARK  145  A    between atoms: _346  and  _349
REMARK  146  A    between atoms: _349  and  _350
REMARK  147  A    between atoms: _351  and  _353
REMARK  148  A    between atoms: _353  and  _354
REMARK  149  A    between atoms: _357  and  _359
REMARK  150  A    between atoms: _359  and  _360
REMARK  151  A    between atoms: _359  and  _362
REMARK  152  A    between atoms: _362  and  _363
REMARK  153  A    between atoms: _363  and  _364
REMARK  154  A    between atoms: _369  and  _371
REMARK  155  A    between atoms: _371  and  _372
REMARK  156  A    between atoms: _371  and  _374
REMARK  157  A    between atoms: _374  and  _375
REMARK  158  A    between atoms: _375  and  _376
REMARK  159  A    between atoms: _376  and  _377
REMARK  160  A    between atoms: _387  and  _388
REMARK  161  A    between atoms: _393  and  _395
REMARK  162  A    between atoms: _395  and  _396
REMARK  163  A    between atoms: _398  and  _400
REMARK  164  A    between atoms: _400  and  _401
REMARK  165  A    between atoms: _400  and  _403
REMARK  166  A    between atoms: _403  and  _404
REMARK  167  A    between atoms: _407  and  _409
REMARK  168  A    between atoms: _409  and  _410
REMARK  169  A    between atoms: _409  and  _412
REMARK  170  A    between atoms: _412  and  _413
REMARK  171  A    between atoms: _418  and  _419
REMARK  172  A    between atoms: _423  and  _424
REMARK  173  A    between atoms: _427  and  _428
REMARK  174  A    between atoms: _433  and  _435
REMARK  175  A    between atoms: _435  and  _436
REMARK  176  A    between atoms: _435  and  _438
REMARK  177  A    between atoms: _438  and  _439
REMARK  178  A    between atoms: _442  and  _444
REMARK  179  A    between atoms: _444  and  _445
REMARK  180  A    between atoms: _444  and  _447
REMARK  181  A    between atoms: _447  and  _448
REMARK  182  A    between atoms: _448  and  _449
REMARK  183  A    between atoms: _449  and  _450
REMARK  184  A    between atoms: _450  and  _451
REMARK  185  A    between atoms: _455  and  _457
REMARK  186  A    between atoms: _457  and  _458
REMARK  187  A    between atoms: _457  and  _460
REMARK  188  A    between atoms: _460  and  _461
REMARK  189  A    between atoms: _467  and  _469
REMARK  190  A    between atoms: _469  and  _470
REMARK  191  A    between atoms: _469  and  _472
REMARK  192  A    between atoms: _472  and  _473
REMARK  193  A    between atoms: _478  and  _479
REMARK  194  A    between atoms: _481  and  _483
REMARK  195  A    between atoms: _483  and  _484
REMARK  196  A    between atoms: _483  and  _486
REMARK  197  A    between atoms: _486  and  _487
REMARK  198  A    between atoms: _490  and  _492
REMARK  199  A    between atoms: _492  and  _493
REMARK  200  A    between atoms: _496  and  _498
REMARK  201  A    between atoms: _498  and  _499
REMARK  202  A    between atoms: _498  and  _501
REMARK  203  A    between atoms: _501  and  _502
REMARK  204  A    between atoms: _502  and  _503
REMARK  205  A    between atoms: _508  and  _510
REMARK  206  A    between atoms: _510  and  _511
REMARK  207  A    between atoms: _510  and  _513
REMARK  208  A    between atoms: _513  and  _514
REMARK                            x       y       z     vdW  Elec       q    Type
REMARK                         _______ _______ _______ _____ _____    ______ ____
ROOT
ATOM      1  C   ASN A   1      35.850 -15.924  -8.738  0.00  0.00    +0.239 C 
ATOM      2  N   ASP A   2      35.738 -15.757  -7.403  0.00  0.00    -0.298 N 
ATOM      3  H   ASP A   2      36.570 -15.994  -6.826  0.00  0.00    +0.150 HD
ATOM      4  O   ASN A   1      34.927 -15.716  -9.529  0.00  0.00    -0.274 OA
ENDROOT
BRANCH   1   5
ATOM      5  CA  ASN A   1      37.178 -16.488  -9.251  0.00  0.00    +0.154 C 
BRANCH   5   6
ATOM      6  N   ASN A   1      36.907 -17.731  -9.980  0.00  0.00    -0.238 NA
ATOM      7  H   ASN A   1      37.103 -17.759 -11.001  0.00  0.00    +0.142 HD
ENDBRANCH   5   6
BRANCH   5   8
ATOM      8  CB  ASN A   1      37.888 -15.470 -10.147  0.00  0.00    +0.111 C 
BRANCH   8   9
ATOM      9  CG  ASN A   1      39.221 -15.942 -10.658  0.00  0.00    +0.221 C 
ATOM     10  OD1 ASN A   1      40.247 -15.831  -9.982  0.00  0.00    -0.275 OA
ATOM     11  ND2 ASN A   1      39.230 -16.484 -11.864  0.00  0.00    -0.329 N 
ATOM     12 HD21 ASN A   1      40.121 -16.833 -12.271  0.00  0.00    +0.145 HD
ATOM     13 HD22 ASN A   1      38.346 -16.561 -12.406  0.00  0.00    +0.145 HD
ENDBRANCH   8   9
ENDBRANCH   5   8
ENDBRANCH   1   5
BRANCH   2  14
ATOM     14  CA  ASP A   2      34.546 -15.270  -6.690  0.00  0.00    +0.148 C 
BRANCH  14  15
ATOM     15  C   ASP A   2      33.283 -16.148  -6.830  0.00  0.00    +0.227 C 
ATOM     16  O   ASP A   2      32.173 -15.689  -6.537  0.00  0.00    -0.286 OA
ENDBRANCH  14  15
BRANCH  14  17
ATOM     17  CB  ASP A   2      34.274 -13.772  -6.949  0.00  0.00    +0.142 C 
BRANCH  17  18
ATOM     18  CG  ASP A   2      34.812 -12.873  -5.858  0.00  0.00    +0.367 C 
ATOM     19  OD2 ASP A   2      34.191 -12.819  -4.771  0.00  0.00    -0.246 OA
ATOM     20  OD1 ASP A   2      35.851 -12.218  -6.089  0.00  0.00    -0.246 OA
ENDBRANCH  17  18
ENDBRANCH  14  17
ENDBRANCH   2  14
TORSDOF 8
REMARK  Name = ../refined-set-2016/3v7t/3v7t_pocket.pdb
REMARK  208 active torsions:
REMARK  status: ('A' for Active; 'I' for Inactive)
REMARK    1  A    between atoms: _1  and  _5
REMARK    2  A    between atoms: _5  and  _6
REMARK    3  A    between atoms: _5  and  _8
REMARK    4  A    between atoms: _8  and  _9
REMARK    5  A    between atoms: _12  and  _14
REMARK    6  A    between atoms: _14  and  _15
REMARK    7  A    between atoms: _14  and  _17
REMARK    8  A    between atoms: _20  and  _22
REMARK    9  A    between atoms: _22  and  _23
REMARK   10  A    between atoms: _22  and  _25
REMARK   11  A    between atoms: _25  and  _26
REMARK   12  A    between atoms: _32  and  _34
REMARK   13  A    between atoms: _34  and  _35
REMARK   14  A    between atoms: _34  and  _37
REMARK   15  A    between atoms: _37  and  _38
REMARK   16  A    between atoms: _38  and  _56
REMARK   17  A    between atoms: _39  and  _41
REMARK   18  A    between atoms: _41  and  _42
REMARK   19  A    between atoms: _41  and  _44
REMARK   20  A    between atoms: _44  and  _45
REMARK   21  A    between atoms: _50  and  _52
REMARK   22  A    between atoms: _52  and  _53
REMARK   23  A    between atoms: _52  and  _55
REMARK   24  A    between atoms: _55  and  _56
REMARK   25  A    between atoms: _57  and  _59
REMARK   26  A    between atoms: _59  and  _60
REMARK   27  A    between atoms: _59  and  _62
REMARK   28  A    between atoms: _62  and  _63
REMARK   29  A    between atoms: _66  and  _68
REMARK   30  A    between atoms: _68  and  _69
REMARK   31  A    between atoms: _72  and  _74
REMARK   32  A    between atoms: _74  and  _75
REMARK   33  A    between atoms: _74  and  _77
REMARK   34  A    between atoms: _77  and  _78
REMARK   35  A    between atoms: _78  and  _79
REMARK   36  A    between atoms: _84  and  _86
REMARK   37  A    between atoms: _86  and  _87
REMARK   38  A    between atoms: _86  and  _89
REMARK   39  A    between atoms: _89  and  _90
REMARK   40  A    between atoms: _93  and  _95
REMARK   41  A    between atoms: _95  and  _96
REMARK   42  A    between atoms: _95  and  _98
REMARK   43  A    between atoms: _98  and  _99
REMARK   44  A    between atoms: _102  and  _104
REMARK   45  A    between atoms: _104  and  _105
REMARK   46  A    between atoms: _104  and  _107
REMARK   47  A    between atoms: _110  and  _112
REMARK   48  A    between atoms: _112  and  _113
REMARK   49  A    between atoms: _112  and  _115
REMARK   50  A    between atoms: _115  and  _116
REMARK   51  A    between atoms: _119  and  _121
REMARK   52  A    between atoms: _121  and  _122
REMARK   53  A    between atoms: _121  and  _124
REMARK   54  A    between atoms: _124  and  _125
REMARK   55  A    between atoms: _130  and  _132
REMARK   56  A    between atoms: _132  and  _133
REMARK   57  A    between atoms: _132  and  _135
REMARK   58  A    between atoms: _135  and  _136
REMARK   59  A    between atoms: _139  and  _141
REMARK   60  A    between atoms: _141  and  _142
REMARK   61  A    between atoms: _141  and  _144
REMARK   62  A    between atoms: _144  and  _145
REMARK   63  A    between atoms: _150  and  _151
REMARK   64  A    between atoms: _153  and  _155
REMARK   65  A    between atoms: _155  and  _156
REMARK   66  A    between atoms: _159  and  _161
REMARK   67  A    between atoms: _161  and  _162
REMARK   68  A    between atoms: _161  and  _164
REMARK   69  A    between atoms: _164  and  _165
REMARK   70  A    between atoms: _168  and  _170
REMARK   71  A    between atoms: _170  and  _171
REMARK   72  A    between atoms: _170  and  _173
REMARK   73  A    between atoms: _173  and  _174
REMARK   74  A    between atoms: _177  and  _179
REMARK   75  A    between atoms: _179  and  _180
REMARK   76  A    between atoms: _183  and  _185
REMARK   77  A    between atoms: _185  and  _186
REMARK   78  A    between atoms: _188  and  _190
REMARK   79  A    between atoms: _190  and  _191
REMARK   80  A    between atoms: _190  and  _193
REMARK   81  A    between atoms: _193  and  _194
REMARK   82  A    between atoms: _199  and  _201
REMARK   83  A    between atoms: _201  and  _202
REMARK   84  A    between atoms: _201  and  _204
REMARK   85  A    between atoms: _204  and  _205
REMARK   86  A    between atoms: _205  and  _206
REMARK   87  A    between atoms: _206  and  _207
REMARK   88  A    between atoms: _216  and  _218
REMARK   89  A    between atoms: _218  and  _219
REMARK   90  A    between atoms: _218  and  _221
REMARK   91  A    between atoms: _221  and  _222
REMARK   92  A    between atoms: _225  and  _227
REMARK   93  A    between atoms: _227  and  _228
REMARK   94  A    between atoms: _227  and  _230
REMARK   95  A    between atoms: _230  and  _231
REMARK   96  A    between atoms: _233  and  _235
REMARK   97  A    between atoms: _235  and  _236
REMARK   98  A    between atoms: _235  and  _238
REMARK   99  A    between atoms: _238  and  _239
REMARK  100  A    between atoms: _239  and  _350
REMARK  101  A    between atoms: _240  and  _242
REMARK  102  A    between atoms: _242  and  _243
REMARK  103  A    between atoms: _242  and  _245
REMARK  104  A    between atoms: _245  and  _246
REMARK  105  A    between atoms: _246  and  _247
REMARK  106  A    between atoms: _252  and  _254
REMARK  107  A    between atoms: _254  and  _255
REMARK  108  A    between atoms: _257  and  _259
REMARK  109  A    between atoms: _259  and  _260
REMARK  110  A    between atoms: _259  and  _262
REMARK  111  A    between atoms: _262  and  _263
REMARK  112  A    between atoms: _266  and  _268
REMARK  113  A    between atoms: _268  and  _269
REMARK  114  A    between atoms: _268  and  _271
REMARK  115  A    between atoms: _271  and  _272
REMARK  116  A    between atoms: _274  and  _276
REMARK  117  A    between atoms: _276  and  _277
REMARK  118  A    between atoms: _279  and  _281
REMARK  119  A    between atoms: _281  and  _282
REMARK  120  A    between atoms: _284  and  _286
REMARK  121  A    between atoms: _286  and  _287
REMARK  122  A    between atoms: _286  and  _289
REMARK  123  A    between atoms: _292  and  _294
REMARK  124  A    between atoms: _294  and  _295
REMARK  125  A    between atoms: _294  and  _297
REMARK  126  A    between atoms: _300  and  _302
REMARK  127  A    between atoms: _302  and  _303
REMARK  128  A    between atoms: _302  and  _305
REMARK  129  A    between atoms: _305  and  _306
REMARK  130  A    between atoms: _308  and  _310
REMARK  131  A    between atoms: _310  and  _311
REMARK  132  A    between atoms: _310  and  _313
REMARK  133  A    between atoms: _313  and  _314
REMARK  134  A    between atoms: _324  and  _326
REMARK  135  A    between atoms: _326  and  _327
REMARK  136  A    between atoms: _329  and  _331
REMARK  137  A    between atoms: _331  and  _332
REMARK  138  A    between atoms: _331  and  _334
REMARK  139  A    between atoms: _334  and  _335
REMARK  140  A    between atoms: _335  and  _336
REMARK  141  A    between atoms: _339  and  _341
REMARK  142  A    between atoms: _341  and  _342
REMARK  143  A    between atoms: _344  and  _346
REMARK  144  A    between atoms: _346  and  _347
REMARK  145  A    between atoms: _346  and  _349
REMARK  146  A    between atoms: _349  and  _350
REMARK  147  A    between atoms: _351  and  _353
REMARK  148  A    between atoms: _353  and  _354
REMARK  149  A    between atoms: _357  and  _359
REMARK  150  A    between atoms: _359  and  _360
REMARK  151  A    between atoms: _359  and  _362
REMARK  152  A    between atoms: _362  and  _363
REMARK  153  A    between atoms: _363  and  _364
REMARK  154  A    between atoms: _369  and  _371
REMARK  155  A    between atoms: _371  and  _372
REMARK  156  A    between atoms: _371  and  _374
REMARK  157  A    between atoms: _374  and  _375
REMARK  158  A    between atoms: _375  and  _376
REMARK  159  A    between atoms: _376  and  _377
REMARK  160  A    between atoms: _387  and  _388
REMARK  161  A    between atoms: _393  and  _395
REMARK  162  A    between atoms: _395  and  _396
REMARK  163  A    between atoms: _398  and  _400
REMARK  164  A    between atoms: _400  and  _401
REMARK  165  A    between atoms: _400  and  _403
REMARK  166  A    between atoms: _403  and  _404
REMARK  167  A    between atoms: _407  and  _409
REMARK  168  A    between atoms: _409  and  _410
REMARK  169  A    between atoms: _409  and  _412
REMARK  170  A    between atoms: _412  and  _413
REMARK  171  A    between atoms: _418  and  _419
REMARK  172  A    between atoms: _423  and  _424
REMARK  173  A    between atoms: _427  and  _428
REMARK  174  A    between atoms: _433  and  _435
REMARK  175  A    between atoms: _435  and  _436
REMARK  176  A    between atoms: _435  and  _438
REMARK  177  A    between atoms: _438  and  _439
REMARK  178  A    between atoms: _442  and  _444
REMARK  179  A    between atoms: _444  and  _445
REMARK  180  A    between atoms: _444  and  _447
REMARK  181  A    between atoms: _447  and  _448
REMARK  182  A    between atoms: _448  and  _449
REMARK  183  A    between atoms: _449  and  _450
REMARK  184  A    between atoms: _450  and  _451
REMARK  185  A    between atoms: _455  and  _457
REMARK  186  A    between atoms: _457  and  _458
REMARK  187  A    between atoms: _457  and  _460
REMARK  188  A    between atoms: _460  and  _461
REMARK  189  A    between atoms: _467  and  _469
REMARK  190  A    between atoms: _469  and  _470
REMARK  191  A    between atoms: _469  and  _472
REMARK  192  A    between atoms: _472  and  _473
REMARK  193  A    between atoms: _478  and  _479
REMARK  194  A    between atoms: _481  and  _483
REMARK  195  A    between atoms: _483  and  _484
REMARK  196  A    between atoms: _483  and  _486
REMARK  197  A    between atoms: _486  and  _487
REMARK  198  A    between atoms: _490  and  _492
REMARK  199  A    between atoms: _492  and  _493
REMARK  200  A    between atoms: _496  and  _498
REMARK  201  A    between atoms: _498  and  _499
REMARK  202  A    between atoms: _498  and  _501
REMARK  203  A    between atoms: _501  and  _502
REMARK  204  A    between atoms: _502  and  _503
REMARK  205  A    between atoms: _508  and  _510
REMARK  206  A    between atoms: _510  and  _511
REMARK  207  A    between atoms: _510  and  _513
REMARK  208  A    between atoms: _513  and  _514
REMARK                            x       y       z     vdW  Elec       q    Type
REMARK                         _______ _______ _______ _____ _____    ______ ____
ROOT
ATOM      1  CG  TYR A   1      53.579 -15.593 -12.039  0.00  0.00    -0.020 A 
ATOM      2  CD2 TYR A   1      52.835 -14.891 -11.095  0.00  0.00    -0.001 A 
ATOM      3  CE2 TYR A   1      51.750 -15.479 -10.447  0.00  0.00    +0.036 A 
ATOM      4  CZ  TYR A   1      51.376 -16.774 -10.768  0.00  0.00    +0.134 A 
ATOM      5  CE1 TYR A   1      52.106 -17.493 -11.699  0.00  0.00    +0.036 A 
ATOM      6  CD1 TYR A   1      53.194 -16.898 -12.335  0.00  0.00    -0.001 A 
ENDROOT
BRANCH   4   7
ATOM      7  OH  TYR A   1      50.310 -17.365 -10.136  0.00  0.00    -0.506 OA
ATOM      8  HH  TYR A   1      50.187 -18.283 -10.487  0.00  0.00    +0.292 HD
ENDBRANCH   4   7
BRANCH   1   9
ATOM      9  CB  TYR A   1      54.742 -14.942 -12.756  0.00  0.00    +0.051 C 
BRANCH   9  10
ATOM     10  CA  TYR A   1      54.358 -14.434 -14.157  0.00  0.00    +0.137 C 
BRANCH  10  11
ATOM     11  N   TYR A   1      54.764 -15.384 -15.196  0.00  0.00    -0.239 NA
ATOM     12  H   TYR A   1      55.442 -16.130 -14.938  0.00  0.00    +0.142 HD
ENDBRANCH  10  11
BRANCH  10  13
ATOM     13  C   TYR A   1      54.847 -13.003 -14.412  0.00  0.00    +0.224 C 
ATOM     14  O   TYR A   1      54.244 -12.057 -13.902  0.00  0.00    -0.287 OA
ENDBRANCH  10  13
ENDBRANCH   9  10
ENDBRANCH   1   9
TORSDOF 5
REMARK  Name = ../refined-set-2016/3v7t/3v7t_pocket.pdb
REMARK  208 active torsions:
REMARK  status: ('A' for Active; 'I' for Inactive)
REMARK    1  A    between atoms: _1  and  _5
REMARK    2  A    between atoms: _5  and  _6
REMARK    3  A    between atoms: _5  and  _8
REMARK    4  A    between atoms: _8  and  _9
REMARK    5  A    between atoms: _12  and  _14
REMARK    6  A    between atoms: _14  and  _15
REMARK    7  A    between atoms: _14  and  _17
REMARK    8  A    between atoms: _20  and  _22
REMARK    9  A    between atoms: _22  and  _23
REMARK   10  A    between atoms: _22  and  _25
REMARK   11  A    between atoms: _25  and  _26
REMARK   12  A    between atoms: _32  and  _34
REMARK   13  A    between atoms: _34  and  _35
REMARK   14  A    between atoms: _34  and  _37
REMARK   15  A    between atoms: _37  and  _38
REMARK   16  A    between atoms: _38  and  _56
REMARK   17  A    between atoms: _39  and  _41
REMARK   18  A    between atoms: _41  and  _42
REMARK   19  A    between atoms: _41  and  _44
REMARK   20  A    between atoms: _44  and  _45
REMARK   21  A    between atoms: _50  and  _52
REMARK   22  A    between atoms: _52  and  _53
REMARK   23  A    between atoms: _52  and  _55
REMARK   24  A    between atoms: _55  and  _56
REMARK   25  A    between atoms: _57  and  _59
REMARK   26  A    between atoms: _59  and  _60
REMARK   27  A    between atoms: _59  and  _62
REMARK   28  A    between atoms: _62  and  _63
REMARK   29  A    between atoms: _66  and  _68
REMARK   30  A    between atoms: _68  and  _69
REMARK   31  A    between atoms: _72  and  _74
REMARK   32  A    between atoms: _74  and  _75
REMARK   33  A    between atoms: _74  and  _77
REMARK   34  A    between atoms: _77  and  _78
REMARK   35  A    between atoms: _78  and  _79
REMARK   36  A    between atoms: _84  and  _86
REMARK   37  A    between atoms: _86  and  _87
REMARK   38  A    between atoms: _86  and  _89
REMARK   39  A    between atoms: _89  and  _90
REMARK   40  A    between atoms: _93  and  _95
REMARK   41  A    between atoms: _95  and  _96
REMARK   42  A    between atoms: _95  and  _98
REMARK   43  A    between atoms: _98  and  _99
REMARK   44  A    between atoms: _102  and  _104
REMARK   45  A    between atoms: _104  and  _105
REMARK   46  A    between atoms: _104  and  _107
REMARK   47  A    between atoms: _110  and  _112
REMARK   48  A    between atoms: _112  and  _113
REMARK   49  A    between atoms: _112  and  _115
REMARK   50  A    between atoms: _115  and  _116
REMARK   51  A    between atoms: _119  and  _121
REMARK   52  A    between atoms: _121  and  _122
REMARK   53  A    between atoms: _121  and  _124
REMARK   54  A    between atoms: _124  and  _125
REMARK   55  A    between atoms: _130  and  _132
REMARK   56  A    between atoms: _132  and  _133
REMARK   57  A    between atoms: _132  and  _135
REMARK   58  A    between atoms: _135  and  _136
REMARK   59  A    between atoms: _139  and  _141
REMARK   60  A    between atoms: _141  and  _142
REMARK   61  A    between atoms: _141  and  _144
REMARK   62  A    between atoms: _144  and  _145
REMARK   63  A    between atoms: _150  and  _151
REMARK   64  A    between atoms: _153  and  _155
REMARK   65  A    between atoms: _155  and  _156
REMARK   66  A    between atoms: _159  and  _161
REMARK   67  A    between atoms: _161  and  _162
REMARK   68  A    between atoms: _161  and  _164
REMARK   69  A    between atoms: _164  and  _165
REMARK   70  A    between atoms: _168  and  _170
REMARK   71  A    between atoms: _170  and  _171
REMARK   72  A    between atoms: _170  and  _173
REMARK   73  A    between atoms: _173  and  _174
REMARK   74  A    between atoms: _177  and  _179
REMARK   75  A    between atoms: _179  and  _180
REMARK   76  A    between atoms: _183  and  _185
REMARK   77  A    between atoms: _185  and  _186
REMARK   78  A    between atoms: _188  and  _190
REMARK   79  A    between atoms: _190  and  _191
REMARK   80  A    between atoms: _190  and  _193
REMARK   81  A    between atoms: _193  and  _194
REMARK   82  A    between atoms: _199  and  _201
REMARK   83  A    between atoms: _201  and  _202
REMARK   84  A    between atoms: _201  and  _204
REMARK   85  A    between atoms: _204  and  _205
REMARK   86  A    between atoms: _205  and  _206
REMARK   87  A    between atoms: _206  and  _207
REMARK   88  A    between atoms: _216  and  _218
REMARK   89  A    between atoms: _218  and  _219
REMARK   90  A    between atoms: _218  and  _221
REMARK   91  A    between atoms: _221  and  _222
REMARK   92  A    between atoms: _225  and  _227
REMARK   93  A    between atoms: _227  and  _228
REMARK   94  A    between atoms: _227  and  _230
REMARK   95  A    between atoms: _230  and  _231
REMARK   96  A    between atoms: _233  and  _235
REMARK   97  A    between atoms: _235  and  _236
REMARK   98  A    between atoms: _235  and  _238
REMARK   99  A    between atoms: _238  and  _239
REMARK  100  A    between atoms: _239  and  _350
REMARK  101  A    between atoms: _240  and  _242
REMARK  102  A    between atoms: _242  and  _243
REMARK  103  A    between atoms: _242  and  _245
REMARK  104  A    between atoms: _245  and  _246
REMARK  105  A    between atoms: _246  and  _247
REMARK  106  A    between atoms: _252  and  _254
REMARK  107  A    between atoms: _254  and  _255
REMARK  108  A    between atoms: _257  and  _259
REMARK  109  A    between atoms: _259  and  _260
REMARK  110  A    between atoms: _259  and  _262
REMARK  111  A    between atoms: _262  and  _263
REMARK  112  A    between atoms: _266  and  _268
REMARK  113  A    between atoms: _268  and  _269
REMARK  114  A    between atoms: _268  and  _271
REMARK  115  A    between atoms: _271  and  _272
REMARK  116  A    between atoms: _274  and  _276
REMARK  117  A    between atoms: _276  and  _277
REMARK  118  A    between atoms: _279  and  _281
REMARK  119  A    between atoms: _281  and  _282
REMARK  120  A    between atoms: _284  and  _286
REMARK  121  A    between atoms: _286  and  _287
REMARK  122  A    between atoms: _286  and  _289
REMARK  123  A    between atoms: _292  and  _294
REMARK  124  A    between atoms: _294  and  _295
REMARK  125  A    between atoms: _294  and  _297
REMARK  126  A    between atoms: _300  and  _302
REMARK  127  A    between atoms: _302  and  _303
REMARK  128  A    between atoms: _302  and  _305
REMARK  129  A    between atoms: _305  and  _306
REMARK  130  A    between atoms: _308  and  _310
REMARK  131  A    between atoms: _310  and  _311
REMARK  132  A    between atoms: _310  and  _313
REMARK  133  A    between atoms: _313  and  _314
REMARK  134  A    between atoms: _324  and  _326
REMARK  135  A    between atoms: _326  and  _327
REMARK  136  A    between atoms: _329  and  _331
REMARK  137  A    between atoms: _331  and  _332
REMARK  138  A    between atoms: _331  and  _334
REMARK  139  A    between atoms: _334  and  _335
REMARK  140  A    between atoms: _335  and  _336
REMARK  141  A    between atoms: _339  and  _341
REMARK  142  A    between atoms: _341  and  _342
REMARK  143  A    between atoms: _344  and  _346
REMARK  144  A    between atoms: _346  and  _347
REMARK  145  A    between atoms: _346  and  _349
REMARK  146  A    between atoms: _349  and  _350
REMARK  147  A    between atoms: _351  and  _353
REMARK  148  A    between atoms: _353  and  _354
REMARK  149  A    between atoms: _357  and  _359
REMARK  150  A    between atoms: _359  and  _360
REMARK  151  A    between atoms: _359  and  _362
REMARK  152  A    between atoms: _362  and  _363
REMARK  153  A    between atoms: _363  and  _364
REMARK  154  A    between atoms: _369  and  _371
REMARK  155  A    between atoms: _371  and  _372
REMARK  156  A    between atoms: _371  and  _374
REMARK  157  A    between atoms: _374  and  _375
REMARK  158  A    between atoms: _375  and  _376
REMARK  159  A    between atoms: _376  and  _377
REMARK  160  A    between atoms: _387  and  _388
REMARK  161  A    between atoms: _393  and  _395
REMARK  162  A    between atoms: _395  and  _396
REMARK  163  A    between atoms: _398  and  _400
REMARK  164  A    between atoms: _400  and  _401
REMARK  165  A    between atoms: _400  and  _403
REMARK  166  A    between atoms: _403  and  _404
REMARK  167  A    between atoms: _407  and  _409
REMARK  168  A    between atoms: _409  and  _410
REMARK  169  A    between atoms: _409  and  _412
REMARK  170  A    between atoms: _412  and  _413
REMARK  171  A    between atoms: _418  and  _419
REMARK  172  A    between atoms: _423  and  _424
REMARK  173  A    between atoms: _427  and  _428
REMARK  174  A    between atoms: _433  and  _435
REMARK  175  A    between atoms: _435  and  _436
REMARK  176  A    between atoms: _435  and  _438
REMARK  177  A    between atoms: _438  and  _439
REMARK  178  A    between atoms: _442  and  _444
REMARK  179  A    between atoms: _444  and  _445
REMARK  180  A    between atoms: _444  and  _447
REMARK  181  A    between atoms: _447  and  _448
REMARK  182  A    between atoms: _448  and  _449
REMARK  183  A    between atoms: _449  and  _450
REMARK  184  A    between atoms: _450  and  _451
REMARK  185  A    between atoms: _455  and  _457
REMARK  186  A    between atoms: _457  and  _458
REMARK  187  A    between atoms: _457  and  _460
REMARK  188  A    between atoms: _460  and  _461
REMARK  189  A    between atoms: _467  and  _469
REMARK  190  A    between atoms: _469  and  _470
REMARK  191  A    between atoms: _469  and  _472
REMARK  192  A    between atoms: _472  and  _473
REMARK  193  A    between atoms: _478  and  _479
REMARK  194  A    between atoms: _481  and  _483
REMARK  195  A    between atoms: _483  and  _484
REMARK  196  A    between atoms: _483  and  _486
REMARK  197  A    between atoms: _486  and  _487
REMARK  198  A    between atoms: _490  and  _492
REMARK  199  A    between atoms: _492  and  _493
REMARK  200  A    between atoms: _496  and  _498
REMARK  201  A    between atoms: _498  and  _499
REMARK  202  A    between atoms: _498  and  _501
REMARK  203  A    between atoms: _501  and  _502
REMARK  204  A    between atoms: _502  and  _503
REMARK  205  A    between atoms: _508  and  _510
REMARK  206  A    between atoms: _510  and  _511
REMARK  207  A    between atoms: _510  and  _513
REMARK  208  A    between atoms: _513  and  _514
REMARK                            x       y       z     vdW  Elec       q    Type
REMARK                         _______ _______ _______ _____ _____    ______ ____
ROOT
ATOM      1  CA  ALA A   1      53.918  -7.154 -15.069  0.00  0.00    +0.133 C 
ATOM      2  CB  ALA A   1      54.246  -8.305 -14.128  0.00  0.00    +0.027 C 
ENDROOT
BRANCH   1   3
ATOM      3  N   ALA A   1      53.484  -7.675 -16.368  0.00  0.00    -0.239 NA
ATOM      4  H   ALA A   1      54.194  -8.149 -16.963  0.00  0.00    +0.142 HD
ENDBRANCH   1   3
BRANCH   1   5
ATOM      5  C   ALA A   1      55.127  -6.224 -15.201  0.00  0.00    +0.224 C 
ATOM      6  O   ALA A   1      55.928  -6.385 -16.123  0.00  0.00    -0.287 OA
ENDBRANCH   1   5
TORSDOF 2
REMARK  Name = ../refined-set-2016/3v7t/3v7t_pocket.pdb
REMARK  208 active torsions:
REMARK  status: ('A' for Active; 'I' for Inactive)
REMARK    1  A    between atoms: _1  and  _5
REMARK    2  A    between atoms: _5  and  _6
REMARK    3  A    between atoms: _5  and  _8
REMARK    4  A    between atoms: _8  and  _9
REMARK    5  A    between atoms: _12  and  _14
REMARK    6  A    between atoms: _14  and  _15
REMARK    7  A    between atoms: _14  and  _17
REMARK    8  A    between atoms: _20  and  _22
REMARK    9  A    between atoms: _22  and  _23
REMARK   10  A    between atoms: _22  and  _25
REMARK   11  A    between atoms: _25  and  _26
REMARK   12  A    between atoms: _32  and  _34
REMARK   13  A    between atoms: _34  and  _35
REMARK   14  A    between atoms: _34  and  _37
REMARK   15  A    between atoms: _37  and  _38
REMARK   16  A    between atoms: _38  and  _56
REMARK   17  A    between atoms: _39  and  _41
REMARK   18  A    between atoms: _41  and  _42
REMARK   19  A    between atoms: _41  and  _44
REMARK   20  A    between atoms: _44  and  _45
REMARK   21  A    between atoms: _50  and  _52
REMARK   22  A    between atoms: _52  and  _53
REMARK   23  A    between atoms: _52  and  _55
REMARK   24  A    between atoms: _55  and  _56
REMARK   25  A    between atoms: _57  and  _59
REMARK   26  A    between atoms: _59  and  _60
REMARK   27  A    between atoms: _59  and  _62
REMARK   28  A    between atoms: _62  and  _63
REMARK   29  A    between atoms: _66  and  _68
REMARK   30  A    between atoms: _68  and  _69
REMARK   31  A    between atoms: _72  and  _74
REMARK   32  A    between atoms: _74  and  _75
REMARK   33  A    between atoms: _74  and  _77
REMARK   34  A    between atoms: _77  and  _78
REMARK   35  A    between atoms: _78  and  _79
REMARK   36  A    between atoms: _84  and  _86
REMARK   37  A    between atoms: _86  and  _87
REMARK   38  A    between atoms: _86  and  _89
REMARK   39  A    between atoms: _89  and  _90
REMARK   40  A    between atoms: _93  and  _95
REMARK   41  A    between atoms: _95  and  _96
REMARK   42  A    between atoms: _95  and  _98
REMARK   43  A    between atoms: _98  and  _99
REMARK   44  A    between atoms: _102  and  _104
REMARK   45  A    between atoms: _104  and  _105
REMARK   46  A    between atoms: _104  and  _107
REMARK   47  A    between atoms: _110  and  _112
REMARK   48  A    between atoms: _112  and  _113
REMARK   49  A    between atoms: _112  and  _115
REMARK   50  A    between atoms: _115  and  _116
REMARK   51  A    between atoms: _119  and  _121
REMARK   52  A    between atoms: _121  and  _122
REMARK   53  A    between atoms: _121  and  _124
REMARK   54  A    between atoms: _124  and  _125
REMARK   55  A    between atoms: _130  and  _132
REMARK   56  A    between atoms: _132  and  _133
REMARK   57  A    between atoms: _132  and  _135
REMARK   58  A    between atoms: _135  and  _136
REMARK   59  A    between atoms: _139  and  _141
REMARK   60  A    between atoms: _141  and  _142
REMARK   61  A    between atoms: _141  and  _144
REMARK   62  A    between atoms: _144  and  _145
REMARK   63  A    between atoms: _150  and  _151
REMARK   64  A    between atoms: _153  and  _155
REMARK   65  A    between atoms: _155  and  _156
REMARK   66  A    between atoms: _159  and  _161
REMARK   67  A    between atoms: _161  and  _162
REMARK   68  A    between atoms: _161  and  _164
REMARK   69  A    between atoms: _164  and  _165
REMARK   70  A    between atoms: _168  and  _170
REMARK   71  A    between atoms: _170  and  _171
REMARK   72  A    between atoms: _170  and  _173
REMARK   73  A    between atoms: _173  and  _174
REMARK   74  A    between atoms: _177  and  _179
REMARK   75  A    between atoms: _179  and  _180
REMARK   76  A    between atoms: _183  and  _185
REMARK   77  A    between atoms: _185  and  _186
REMARK   78  A    between atoms: _188  and  _190
REMARK   79  A    between atoms: _190  and  _191
REMARK   80  A    between atoms: _190  and  _193
REMARK   81  A    between atoms: _193  and  _194
REMARK   82  A    between atoms: _199  and  _201
REMARK   83  A    between atoms: _201  and  _202
REMARK   84  A    between atoms: _201  and  _204
REMARK   85  A    between atoms: _204  and  _205
REMARK   86  A    between atoms: _205  and  _206
REMARK   87  A    between atoms: _206  and  _207
REMARK   88  A    between atoms: _216  and  _218
REMARK   89  A    between atoms: _218  and  _219
REMARK   90  A    between atoms: _218  and  _221
REMARK   91  A    between atoms: _221  and  _222
REMARK   92  A    between atoms: _225  and  _227
REMARK   93  A    between atoms: _227  and  _228
REMARK   94  A    between atoms: _227  and  _230
REMARK   95  A    between atoms: _230  and  _231
REMARK   96  A    between atoms: _233  and  _235
REMARK   97  A    between atoms: _235  and  _236
REMARK   98  A    between atoms: _235  and  _238
REMARK   99  A    between atoms: _238  and  _239
REMARK  100  A    between atoms: _239  and  _350
REMARK  101  A    between atoms: _240  and  _242
REMARK  102  A    between atoms: _242  and  _243
REMARK  103  A    between atoms: _242  and  _245
REMARK  104  A    between atoms: _245  and  _246
REMARK  105  A    between atoms: _246  and  _247
REMARK  106  A    between atoms: _252  and  _254
REMARK  107  A    between atoms: _254  and  _255
REMARK  108  A    between atoms: _257  and  _259
REMARK  109  A    between atoms: _259  and  _260
REMARK  110  A    between atoms: _259  and  _262
REMARK  111  A    between atoms: _262  and  _263
REMARK  112  A    between atoms: _266  and  _268
REMARK  113  A    between atoms: _268  and  _269
REMARK  114  A    between atoms: _268  and  _271
REMARK  115  A    between atoms: _271  and  _272
REMARK  116  A    between atoms: _274  and  _276
REMARK  117  A    between atoms: _276  and  _277
REMARK  118  A    between atoms: _279  and  _281
REMARK  119  A    between atoms: _281  and  _282
REMARK  120  A    between atoms: _284  and  _286
REMARK  121  A    between atoms: _286  and  _287
REMARK  122  A    between atoms: _286  and  _289
REMARK  123  A    between atoms: _292  and  _294
REMARK  124  A    between atoms: _294  and  _295
REMARK  125  A    between atoms: _294  and  _297
REMARK  126  A    between atoms: _300  and  _302
REMARK  127  A    between atoms: _302  and  _303
REMARK  128  A    between atoms: _302  and  _305
REMARK  129  A    between atoms: _305  and  _306
REMARK  130  A    between atoms: _308  and  _310
REMARK  131  A    between atoms: _310  and  _311
REMARK  132  A    between atoms: _310  and  _313
REMARK  133  A    between atoms: _313  and  _314
REMARK  134  A    between atoms: _324  and  _326
REMARK  135  A    between atoms: _326  and  _327
REMARK  136  A    between atoms: _329  and  _331
REMARK  137  A    between atoms: _331  and  _332
REMARK  138  A    between atoms: _331  and  _334
REMARK  139  A    between atoms: _334  and  _335
REMARK  140  A    between atoms: _335  and  _336
REMARK  141  A    between atoms: _339  and  _341
REMARK  142  A    between atoms: _341  and  _342
REMARK  143  A    between atoms: _344  and  _346
REMARK  144  A    between atoms: _346  and  _347
REMARK  145  A    between atoms: _346  and  _349
REMARK  146  A    between atoms: _349  and  _350
REMARK  147  A    between atoms: _351  and  _353
REMARK  148  A    between atoms: _353  and  _354
REMARK  149  A    between atoms: _357  and  _359
REMARK  150  A    between atoms: _359  and  _360
REMARK  151  A    between atoms: _359  and  _362
REMARK  152  A    between atoms: _362  and  _363
REMARK  153  A    between atoms: _363  and  _364
REMARK  154  A    between atoms: _369  and  _371
REMARK  155  A    between atoms: _371  and  _372
REMARK  156  A    between atoms: _371  and  _374
REMARK  157  A    between atoms: _374  and  _375
REMARK  158  A    between atoms: _375  and  _376
REMARK  159  A    between atoms: _376  and  _377
REMARK  160  A    between atoms: _387  and  _388
REMARK  161  A    between atoms: _393  and  _395
REMARK  162  A    between atoms: _395  and  _396
REMARK  163  A    between atoms: _398  and  _400
REMARK  164  A    between atoms: _400  and  _401
REMARK  165  A    between atoms: _400  and  _403
REMARK  166  A    between atoms: _403  and  _404
REMARK  167  A    between atoms: _407  and  _409
REMARK  168  A    between atoms: _409  and  _410
REMARK  169  A    between atoms: _409  and  _412
REMARK  170  A    between atoms: _412  and  _413
REMARK  171  A    between atoms: _418  and  _419
REMARK  172  A    between atoms: _423  and  _424
REMARK  173  A    between atoms: _427  and  _428
REMARK  174  A    between atoms: _433  and  _435
REMARK  175  A    between atoms: _435  and  _436
REMARK  176  A    between atoms: _435  and  _438
REMARK  177  A    between atoms: _438  and  _439
REMARK  178  A    between atoms: _442  and  _444
REMARK  179  A    between atoms: _444  and  _445
REMARK  180  A    between atoms: _444  and  _447
REMARK  181  A    between atoms: _447  and  _448
REMARK  182  A    between atoms: _448  and  _449
REMARK  183  A    between atoms: _449  and  _450
REMARK  184  A    between atoms: _450  and  _451
REMARK  185  A    between atoms: _455  and  _457
REMARK  186  A    between atoms: _457  and  _458
REMARK  187  A    between atoms: _457  and  _460
REMARK  188  A    between atoms: _460  and  _461
REMARK  189  A    between atoms: _467  and  _469
REMARK  190  A    between atoms: _469  and  _470
REMARK  191  A    between atoms: _469  and  _472
REMARK  192  A    between atoms: _472  and  _473
REMARK  193  A    between atoms: _478  and  _479
REMARK  194  A    between atoms: _481  and  _483
REMARK  195  A    between atoms: _483  and  _484
REMARK  196  A    between atoms: _483  and  _486
REMARK  197  A    between atoms: _486  and  _487
REMARK  198  A    between atoms: _490  and  _492
REMARK  199  A    between atoms: _492  and  _493
REMARK  200  A    between atoms: _496  and  _498
REMARK  201  A    between atoms: _498  and  _499
REMARK  202  A    between atoms: _498  and  _501
REMARK  203  A    between atoms: _501  and  _502
REMARK  204  A    between atoms: _502  and  _503
REMARK  205  A    between atoms: _508  and  _510
REMARK  206  A    between atoms: _510  and  _511
REMARK  207  A    between atoms: _510  and  _513
REMARK  208  A    between atoms: _513  and  _514
REMARK                            x       y       z     vdW  Elec       q    Type
REMARK                         _______ _______ _______ _____ _____    ______ ____
ROOT
ATOM      1  CA  THR A   1      58.538  -6.682 -12.083  0.00  0.00    +0.160 C 
ENDROOT
BRANCH   1   2
ATOM      2  N   THR A   1      57.467  -5.959 -12.784  0.00  0.00    -0.237 NA
ATOM      3  H   THR A   1      56.492  -6.280 -12.615  0.00  0.00    +0.142 HD
ENDBRANCH   1   2
BRANCH   1   4
ATOM      4  CB  THR A   1      57.954  -7.885 -11.311  0.00  0.00    +0.134 C 
ATOM      5  CG2 THR A   1      58.973  -8.550 -10.386  0.00  0.00    +0.034 C 
BRANCH   4   6
ATOM      6  OG1 THR A   1      56.823  -7.461 -10.549  0.00  0.00    -0.383 OA
ATOM      7  HG1 THR A   1      57.103  -6.761  -9.907  0.00  0.00    +0.210 HD
ENDBRANCH   4   6
ENDBRANCH   1   4
BRANCH   1   8
ATOM      8  C   THR A   1      59.648  -7.092 -13.056  0.00  0.00    +0.227 C 
ATOM      9  O   THR A   1      59.358  -7.676 -14.101  0.00  0.00    -0.287 OA
ENDBRANCH   1   8
TORSDOF 4
REMARK  Name = ../refined-set-2016/3v7t/3v7t_pocket.pdb
REMARK  208 active torsions:
REMARK  status: ('A' for Active; 'I' for Inactive)
REMARK    1  A    between atoms: _1  and  _5
REMARK    2  A    between atoms: _5  and  _6
REMARK    3  A    between atoms: _5  and  _8
REMARK    4  A    between atoms: _8  and  _9
REMARK    5  A    between atoms: _12  and  _14
REMARK    6  A    between atoms: _14  and  _15
REMARK    7  A    between atoms: _14  and  _17
REMARK    8  A    between atoms: _20  and  _22
REMARK    9  A    between atoms: _22  and  _23
REMARK   10  A    between atoms: _22  and  _25
REMARK   11  A    between atoms: _25  and  _26
REMARK   12  A    between atoms: _32  and  _34
REMARK   13  A    between atoms: _34  and  _35
REMARK   14  A    between atoms: _34  and  _37
REMARK   15  A    between atoms: _37  and  _38
REMARK   16  A    between atoms: _38  and  _56
REMARK   17  A    between atoms: _39  and  _41
REMARK   18  A    between atoms: _41  and  _42
REMARK   19  A    between atoms: _41  and  _44
REMARK   20  A    between atoms: _44  and  _45
REMARK   21  A    between atoms: _50  and  _52
REMARK   22  A    between atoms: _52  and  _53
REMARK   23  A    between atoms: _52  and  _55
REMARK   24  A    between atoms: _55  and  _56
REMARK   25  A    between atoms: _57  and  _59
REMARK   26  A    between atoms: _59  and  _60
REMARK   27  A    between atoms: _59  and  _62
REMARK   28  A    between atoms: _62  and  _63
REMARK   29  A    between atoms: _66  and  _68
REMARK   30  A    between atoms: _68  and  _69
REMARK   31  A    between atoms: _72  and  _74
REMARK   32  A    between atoms: _74  and  _75
REMARK   33  A    between atoms: _74  and  _77
REMARK   34  A    between atoms: _77  and  _78
REMARK   35  A    between atoms: _78  and  _79
REMARK   36  A    between atoms: _84  and  _86
REMARK   37  A    between atoms: _86  and  _87
REMARK   38  A    between atoms: _86  and  _89
REMARK   39  A    between atoms: _89  and  _90
REMARK   40  A    between atoms: _93  and  _95
REMARK   41  A    between atoms: _95  and  _96
REMARK   42  A    between atoms: _95  and  _98
REMARK   43  A    between atoms: _98  and  _99
REMARK   44  A    between atoms: _102  and  _104
REMARK   45  A    between atoms: _104  and  _105
REMARK   46  A    between atoms: _104  and  _107
REMARK   47  A    between atoms: _110  and  _112
REMARK   48  A    between atoms: _112  and  _113
REMARK   49  A    between atoms: _112  and  _115
REMARK   50  A    between atoms: _115  and  _116
REMARK   51  A    between atoms: _119  and  _121
REMARK   52  A    between atoms: _121  and  _122
REMARK   53  A    between atoms: _121  and  _124
REMARK   54  A    between atoms: _124  and  _125
REMARK   55  A    between atoms: _130  and  _132
REMARK   56  A    between atoms: _132  and  _133
REMARK   57  A    between atoms: _132  and  _135
REMARK   58  A    between atoms: _135  and  _136
REMARK   59  A    between atoms: _139  and  _141
REMARK   60  A    between atoms: _141  and  _142
REMARK   61  A    between atoms: _141  and  _144
REMARK   62  A    between atoms: _144  and  _145
REMARK   63  A    between atoms: _150  and  _151
REMARK   64  A    between atoms: _153  and  _155
REMARK   65  A    between atoms: _155  and  _156
REMARK   66  A    between atoms: _159  and  _161
REMARK   67  A    between atoms: _161  and  _162
REMARK   68  A    between atoms: _161  and  _164
REMARK   69  A    between atoms: _164  and  _165
REMARK   70  A    between atoms: _168  and  _170
REMARK   71  A    between atoms: _170  and  _171
REMARK   72  A    between atoms: _170  and  _173
REMARK   73  A    between atoms: _173  and  _174
REMARK   74  A    between atoms: _177  and  _179
REMARK   75  A    between atoms: _179  and  _180
REMARK   76  A    between atoms: _183  and  _185
REMARK   77  A    between atoms: _185  and  _186
REMARK   78  A    between atoms: _188  and  _190
REMARK   79  A    between atoms: _190  and  _191
REMARK   80  A    between atoms: _190  and  _193
REMARK   81  A    between atoms: _193  and  _194
REMARK   82  A    between atoms: _199  and  _201
REMARK   83  A    between atoms: _201  and  _202
REMARK   84  A    between atoms: _201  and  _204
REMARK   85  A    between atoms: _204  and  _205
REMARK   86  A    between atoms: _205  and  _206
REMARK   87  A    between atoms: _206  and  _207
REMARK   88  A    between atoms: _216  and  _218
REMARK   89  A    between atoms: _218  and  _219
REMARK   90  A    between atoms: _218  and  _221
REMARK   91  A    between atoms: _221  and  _222
REMARK   92  A    between atoms: _225  and  _227
REMARK   93  A    between atoms: _227  and  _228
REMARK   94  A    between atoms: _227  and  _230
REMARK   95  A    between atoms: _230  and  _231
REMARK   96  A    between atoms: _233  and  _235
REMARK   97  A    between atoms: _235  and  _236
REMARK   98  A    between atoms: _235  and  _238
REMARK   99  A    between atoms: _238  and  _239
REMARK  100  A    between atoms: _239  and  _350
REMARK  101  A    between atoms: _240  and  _242
REMARK  102  A    between atoms: _242  and  _243
REMARK  103  A    between atoms: _242  and  _245
REMARK  104  A    between atoms: _245  and  _246
REMARK  105  A    between atoms: _246  and  _247
REMARK  106  A    between atoms: _252  and  _254
REMARK  107  A    between atoms: _254  and  _255
REMARK  108  A    between atoms: _257  and  _259
REMARK  109  A    between atoms: _259  and  _260
REMARK  110  A    between atoms: _259  and  _262
REMARK  111  A    between atoms: _262  and  _263
REMARK  112  A    between atoms: _266  and  _268
REMARK  113  A    between atoms: _268  and  _269
REMARK  114  A    between atoms: _268  and  _271
REMARK  115  A    between atoms: _271  and  _272
REMARK  116  A    between atoms: _274  and  _276
REMARK  117  A    between atoms: _276  and  _277
REMARK  118  A    between atoms: _279  and  _281
REMARK  119  A    between atoms: _281  and  _282
REMARK  120  A    between atoms: _284  and  _286
REMARK  121  A    between atoms: _286  and  _287
REMARK  122  A    between atoms: _286  and  _289
REMARK  123  A    between atoms: _292  and  _294
REMARK  124  A    between atoms: _294  and  _295
REMARK  125  A    between atoms: _294  and  _297
REMARK  126  A    between atoms: _300  and  _302
REMARK  127  A    between atoms: _302  and  _303
REMARK  128  A    between atoms: _302  and  _305
REMARK  129  A    between atoms: _305  and  _306
REMARK  130  A    between atoms: _308  and  _310
REMARK  131  A    between atoms: _310  and  _311
REMARK  132  A    between atoms: _310  and  _313
REMARK  133  A    between atoms: _313  and  _314
REMARK  134  A    between atoms: _324  and  _326
REMARK  135  A    between atoms: _326  and  _327
REMARK  136  A    between atoms: _329  and  _331
REMARK  137  A    between atoms: _331  and  _332
REMARK  138  A    between atoms: _331  and  _334
REMARK  139  A    between atoms: _334  and  _335
REMARK  140  A    between atoms: _335  and  _336
REMARK  141  A    between atoms: _339  and  _341
REMARK  142  A    between atoms: _341  and  _342
REMARK  143  A    between atoms: _344  and  _346
REMARK  144  A    between atoms: _346  and  _347
REMARK  145  A    between atoms: _346  and  _349
REMARK  146  A    between atoms: _349  and  _350
REMARK  147  A    between atoms: _351  and  _353
REMARK  148  A    between atoms: _353  and  _354
REMARK  149  A    between atoms: _357  and  _359
REMARK  150  A    between atoms: _359  and  _360
REMARK  151  A    between atoms: _359  and  _362
REMARK  152  A    between atoms: _362  and  _363
REMARK  153  A    between atoms: _363  and  _364
REMARK  154  A    between atoms: _369  and  _371
REMARK  155  A    between atoms: _371  and  _372
REMARK  156  A    between atoms: _371  and  _374
REMARK  157  A    between atoms: _374  and  _375
REMARK  158  A    between atoms: _375  and  _376
REMARK  159  A    between atoms: _376  and  _377
REMARK  160  A    between atoms: _387  and  _388
REMARK  161  A    between atoms: _393  and  _395
REMARK  162  A    between atoms: _395  and  _396
REMARK  163  A    between atoms: _398  and  _400
REMARK  164  A    between atoms: _400  and  _401
REMARK  165  A    between atoms: _400  and  _403
REMARK  166  A    between atoms: _403  and  _404
REMARK  167  A    between atoms: _407  and  _409
REMARK  168  A    between atoms: _409  and  _410
REMARK  169  A    between atoms: _409  and  _412
REMARK  170  A    between atoms: _412  and  _413
REMARK  171  A    between atoms: _418  and  _419
REMARK  172  A    between atoms: _423  and  _424
REMARK  173  A    between atoms: _427  and  _428
REMARK  174  A    between atoms: _433  and  _435
REMARK  175  A    between atoms: _435  and  _436
REMARK  176  A    between atoms: _435  and  _438
REMARK  177  A    between atoms: _438  and  _439
REMARK  178  A    between atoms: _442  and  _444
REMARK  179  A    between atoms: _444  and  _445
REMARK  180  A    between atoms: _444  and  _447
REMARK  181  A    between atoms: _447  and  _448
REMARK  182  A    between atoms: _448  and  _449
REMARK  183  A    between atoms: _449  and  _450
REMARK  184  A    between atoms: _450  and  _451
REMARK  185  A    between atoms: _455  and  _457
REMARK  186  A    between atoms: _457  and  _458
REMARK  187  A    between atoms: _457  and  _460
REMARK  188  A    between atoms: _460  and  _461
REMARK  189  A    between atoms: _467  and  _469
REMARK  190  A    between atoms: _469  and  _470
REMARK  191  A    between atoms: _469  and  _472
REMARK  192  A    between atoms: _472  and  _473
REMARK  193  A    between atoms: _478  and  _479
REMARK  194  A    between atoms: _481  and  _483
REMARK  195  A    between atoms: _483  and  _484
REMARK  196  A    between atoms: _483  and  _486
REMARK  197  A    between atoms: _486  and  _487
REMARK  198  A    between atoms: _490  and  _492
REMARK  199  A    between atoms: _492  and  _493
REMARK  200  A    between atoms: _496  and  _498
REMARK  201  A    between atoms: _498  and  _499
REMARK  202  A    between atoms: _498  and  _501
REMARK  203  A    between atoms: _501  and  _502
REMARK  204  A    between atoms: _502  and  _503
REMARK  205  A    between atoms: _508  and  _510
REMARK  206  A    between atoms: _510  and  _511
REMARK  207  A    between atoms: _510  and  _513
REMARK  208  A    between atoms: _513  and  _514
REMARK                            x       y       z     vdW  Elec       q    Type
REMARK                         _______ _______ _______ _____ _____    ______ ____
ROOT
ATOM      1  CA  ILE A   1      58.411 -14.294  -8.511  0.00  0.00    +0.133 C 
ENDROOT
BRANCH   1   2
ATOM      2  N   ILE A   1      59.780 -14.288  -9.035  0.00  0.00    -0.239 NA
ATOM      3  H   ILE A   1      59.927 -14.652  -9.998  0.00  0.00    +0.142 HD
ENDBRANCH   1   2
BRANCH   1   4
ATOM      4  C   ILE A   1      58.165 -15.709  -7.964  0.00  0.00    +0.224 C 
ATOM      5  O   ILE A   1      57.791 -15.863  -6.801  0.00  0.00    -0.287 OA
ENDBRANCH   1   4
BRANCH   1   6
ATOM      6  CB  ILE A   1      57.372 -13.859  -9.589  0.00  0.00    +0.023 C 
ATOM      7  CG2 ILE A   1      55.936 -14.186  -9.140  0.00  0.00    +0.002 C 
BRANCH   6   8
ATOM      8  CG1 ILE A   1      57.523 -12.354  -9.927  0.00  0.00    +0.002 C 
ATOM      9  CD1 ILE A   1      56.887 -11.891 -11.267  0.00  0.00    +0.000 C 
ENDBRANCH   6   8
ENDBRANCH   1   6
TORSDOF 4
REMARK  Name = ../refined-set-2016/3v7t/3v7t_pocket.pdb
REMARK  208 active torsions:
REMARK  status: ('A' for Active; 'I' for Inactive)
REMARK    1  A    between atoms: _1  and  _5
REMARK    2  A    between atoms: _5  and  _6
REMARK    3  A    between atoms: _5  and  _8
REMARK    4  A    between atoms: _8  and  _9
REMARK    5  A    between atoms: _12  and  _14
REMARK    6  A    between atoms: _14  and  _15
REMARK    7  A    between atoms: _14  and  _17
REMARK    8  A    between atoms: _20  and  _22
REMARK    9  A    between atoms: _22  and  _23
REMARK   10  A    between atoms: _22  and  _25
REMARK   11  A    between atoms: _25  and  _26
REMARK   12  A    between atoms: _32  and  _34
REMARK   13  A    between atoms: _34  and  _35
REMARK   14  A    between atoms: _34  and  _37
REMARK   15  A    between atoms: _37  and  _38
REMARK   16  A    between atoms: _38  and  _56
REMARK   17  A    between atoms: _39  and  _41
REMARK   18  A    between atoms: _41  and  _42
REMARK   19  A    between atoms: _41  and  _44
REMARK   20  A    between atoms: _44  and  _45
REMARK   21  A    between atoms: _50  and  _52
REMARK   22  A    between atoms: _52  and  _53
REMARK   23  A    between atoms: _52  and  _55
REMARK   24  A    between atoms: _55  and  _56
REMARK   25  A    between atoms: _57  and  _59
REMARK   26  A    between atoms: _59  and  _60
REMARK   27  A    between atoms: _59  and  _62
REMARK   28  A    between atoms: _62  and  _63
REMARK   29  A    between atoms: _66  and  _68
REMARK   30  A    between atoms: _68  and  _69
REMARK   31  A    between atoms: _72  and  _74
REMARK   32  A    between atoms: _74  and  _75
REMARK   33  A    between atoms: _74  and  _77
REMARK   34  A    between atoms: _77  and  _78
REMARK   35  A    between atoms: _78  and  _79
REMARK   36  A    between atoms: _84  and  _86
REMARK   37  A    between atoms: _86  and  _87
REMARK   38  A    between atoms: _86  and  _89
REMARK   39  A    between atoms: _89  and  _90
REMARK   40  A    between atoms: _93  and  _95
REMARK   41  A    between atoms: _95  and  _96
REMARK   42  A    between atoms: _95  and  _98
REMARK   43  A    between atoms: _98  and  _99
REMARK   44  A    between atoms: _102  and  _104
REMARK   45  A    between atoms: _104  and  _105
REMARK   46  A    between atoms: _104  and  _107
REMARK   47  A    between atoms: _110  and  _112
REMARK   48  A    between atoms: _112  and  _113
REMARK   49  A    between atoms: _112  and  _115
REMARK   50  A    between atoms: _115  and  _116
REMARK   51  A    between atoms: _119  and  _121
REMARK   52  A    between atoms: _121  and  _122
REMARK   53  A    between atoms: _121  and  _124
REMARK   54  A    between atoms: _124  and  _125
REMARK   55  A    between atoms: _130  and  _132
REMARK   56  A    between atoms: _132  and  _133
REMARK   57  A    between atoms: _132  and  _135
REMARK   58  A    between atoms: _135  and  _136
REMARK   59  A    between atoms: _139  and  _141
REMARK   60  A    between atoms: _141  and  _142
REMARK   61  A    between atoms: _141  and  _144
REMARK   62  A    between atoms: _144  and  _145
REMARK   63  A    between atoms: _150  and  _151
REMARK   64  A    between atoms: _153  and  _155
REMARK   65  A    between atoms: _155  and  _156
REMARK   66  A    between atoms: _159  and  _161
REMARK   67  A    between atoms: _161  and  _162
REMARK   68  A    between atoms: _161  and  _164
REMARK   69  A    between atoms: _164  and  _165
REMARK   70  A    between atoms: _168  and  _170
REMARK   71  A    between atoms: _170  and  _171
REMARK   72  A    between atoms: _170  and  _173
REMARK   73  A    between atoms: _173  and  _174
REMARK   74  A    between atoms: _177  and  _179
REMARK   75  A    between atoms: _179  and  _180
REMARK   76  A    between atoms: _183  and  _185
REMARK   77  A    between atoms: _185  and  _186
REMARK   78  A    between atoms: _188  and  _190
REMARK   79  A    between atoms: _190  and  _191
REMARK   80  A    between atoms: _190  and  _193
REMARK   81  A    between atoms: _193  and  _194
REMARK   82  A    between atoms: _199  and  _201
REMARK   83  A    between atoms: _201  and  _202
REMARK   84  A    between atoms: _201  and  _204
REMARK   85  A    between atoms: _204  and  _205
REMARK   86  A    between atoms: _205  and  _206
REMARK   87  A    between atoms: _206  and  _207
REMARK   88  A    between atoms: _216  and  _218
REMARK   89  A    between atoms: _218  and  _219
REMARK   90  A    between atoms: _218  and  _221
REMARK   91  A    between atoms: _221  and  _222
REMARK   92  A    between atoms: _225  and  _227
REMARK   93  A    between atoms: _227  and  _228
REMARK   94  A    between atoms: _227  and  _230
REMARK   95  A    between atoms: _230  and  _231
REMARK   96  A    between atoms: _233  and  _235
REMARK   97  A    between atoms: _235  and  _236
REMARK   98  A    between atoms: _235  and  _238
REMARK   99  A    between atoms: _238  and  _239
REMARK  100  A    between atoms: _239  and  _350
REMARK  101  A    between atoms: _240  and  _242
REMARK  102  A    between atoms: _242  and  _243
REMARK  103  A    between atoms: _242  and  _245
REMARK  104  A    between atoms: _245  and  _246
REMARK  105  A    between atoms: _246  and  _247
REMARK  106  A    between atoms: _252  and  _254
REMARK  107  A    between atoms: _254  and  _255
REMARK  108  A    between atoms: _257  and  _259
REMARK  109  A    between atoms: _259  and  _260
REMARK  110  A    between atoms: _259  and  _262
REMARK  111  A    between atoms: _262  and  _263
REMARK  112  A    between atoms: _266  and  _268
REMARK  113  A    between atoms: _268  and  _269
REMARK  114  A    between atoms: _268  and  _271
REMARK  115  A    between atoms: _271  and  _272
REMARK  116  A    between atoms: _274  and  _276
REMARK  117  A    between atoms: _276  and  _277
REMARK  118  A    between atoms: _279  and  _281
REMARK  119  A    between atoms: _281  and  _282
REMARK  120  A    between atoms: _284  and  _286
REMARK  121  A    between atoms: _286  and  _287
REMARK  122  A    between atoms: _286  and  _289
REMARK  123  A    between atoms: _292  and  _294
REMARK  124  A    between atoms: _294  and  _295
REMARK  125  A    between atoms: _294  and  _297
REMARK  126  A    between atoms: _300  and  _302
REMARK  127  A    between atoms: _302  and  _303
REMARK  128  A    between atoms: _302  and  _305
REMARK  129  A    between atoms: _305  and  _306
REMARK  130  A    between atoms: _308  and  _310
REMARK  131  A    between atoms: _310  and  _311
REMARK  132  A    between atoms: _310  and  _313
REMARK  133  A    between atoms: _313  and  _314
REMARK  134  A    between atoms: _324  and  _326
REMARK  135  A    between atoms: _326  and  _327
REMARK  136  A    between atoms: _329  and  _331
REMARK  137  A    between atoms: _331  and  _332
REMARK  138  A    between atoms: _331  and  _334
REMARK  139  A    between atoms: _334  and  _335
REMARK  140  A    between atoms: _335  and  _336
REMARK  141  A    between atoms: _339  and  _341
REMARK  142  A    between atoms: _341  and  _342
REMARK  143  A    between atoms: _344  and  _346
REMARK  144  A    between atoms: _346  and  _347
REMARK  145  A    between atoms: _346  and  _349
REMARK  146  A    between atoms: _349  and  _350
REMARK  147  A    between atoms: _351  and  _353
REMARK  148  A    between atoms: _353  and  _354
REMARK  149  A    between atoms: _357  and  _359
REMARK  150  A    between atoms: _359  and  _360
REMARK  151  A    between atoms: _359  and  _362
REMARK  152  A    between atoms: _362  and  _363
REMARK  153  A    between atoms: _363  and  _364
REMARK  154  A    between atoms: _369  and  _371
REMARK  155  A    between atoms: _371  and  _372
REMARK  156  A    between atoms: _371  and  _374
REMARK  157  A    between atoms: _374  and  _375
REMARK  158  A    between atoms: _375  and  _376
REMARK  159  A    between atoms: _376  and  _377
REMARK  160  A    between atoms: _387  and  _388
REMARK  161  A    between atoms: _393  and  _395
REMARK  162  A    between atoms: _395  and  _396
REMARK  163  A    between atoms: _398  and  _400
REMARK  164  A    between atoms: _400  and  _401
REMARK  165  A    between atoms: _400  and  _403
REMARK  166  A    between atoms: _403  and  _404
REMARK  167  A    between atoms: _407  and  _409
REMARK  168  A    between atoms: _409  and  _410
REMARK  169  A    between atoms: _409  and  _412
REMARK  170  A    between atoms: _412  and  _413
REMARK  171  A    between atoms: _418  and  _419
REMARK  172  A    between atoms: _423  and  _424
REMARK  173  A    between atoms: _427  and  _428
REMARK  174  A    between atoms: _433  and  _435
REMARK  175  A    between atoms: _435  and  _436
REMARK  176  A    between atoms: _435  and  _438
REMARK  177  A    between atoms: _438  and  _439
REMARK  178  A    between atoms: _442  and  _444
REMARK  179  A    between atoms: _444  and  _445
REMARK  180  A    between atoms: _444  and  _447
REMARK  181  A    between atoms: _447  and  _448
REMARK  182  A    between atoms: _448  and  _449
REMARK  183  A    between atoms: _449  and  _450
REMARK  184  A    between atoms: _450  and  _451
REMARK  185  A    between atoms: _455  and  _457
REMARK  186  A    between atoms: _457  and  _458
REMARK  187  A    between atoms: _457  and  _460
REMARK  188  A    between atoms: _460  and  _461
REMARK  189  A    between atoms: _467  and  _469
REMARK  190  A    between atoms: _469  and  _470
REMARK  191  A    between atoms: _469  and  _472
REMARK  192  A    between atoms: _472  and  _473
REMARK  193  A    between atoms: _478  and  _479
REMARK  194  A    between atoms: _481  and  _483
REMARK  195  A    between atoms: _483  and  _484
REMARK  196  A    between atoms: _483  and  _486
REMARK  197  A    between atoms: _486  and  _487
REMARK  198  A    between atoms: _490  and  _492
REMARK  199  A    between atoms: _492  and  _493
REMARK  200  A    between atoms: _496  and  _498
REMARK  201  A    between atoms: _498  and  _499
REMARK  202  A    between atoms: _498  and  _501
REMARK  203  A    between atoms: _501  and  _502
REMARK  204  A    between atoms: _502  and  _503
REMARK  205  A    between atoms: _508  and  _510
REMARK  206  A    between atoms: _510  and  _511
REMARK  207  A    between atoms: _510  and  _513
REMARK  208  A    between atoms: _513  and  _514
REMARK                            x       y       z     vdW  Elec       q    Type
REMARK                         _______ _______ _______ _____ _____    ______ ____
ROOT
ATOM      1  C   GLY A   2      47.717 -24.726 -15.182  0.00  0.00    +0.243 C 
ATOM      2  O   GLY A   2      48.792 -24.369 -15.673  0.00  0.00    -0.273 OA
ATOM      3  N   ASN A   3      46.518 -24.393 -15.697  0.00  0.00    -0.298 N 
ATOM      4  H   ASN A   3      45.676 -24.763 -15.212  0.00  0.00    +0.150 HD
ENDROOT
BRANCH   1   5
ATOM      5  CA  GLY A   2      47.677 -25.582 -13.934  0.00  0.00    +0.176 C 
BRANCH   5   8
ATOM      6  C   ALA A   1      49.541 -25.762 -12.348  0.00  0.00    +0.238 C 
ATOM      7  O   ALA A   1      49.087 -24.911 -11.581  0.00  0.00    -0.274 OA
ATOM      8  N   GLY A   2      48.951 -26.126 -13.483  0.00  0.00    -0.296 N 
ATOM      9  H   GLY A   2      49.423 -26.835 -14.079  0.00  0.00    +0.150 HD
BRANCH   6  10
ATOM     10  CA  ALA A   1      50.851 -26.471 -12.020  0.00  0.00    +0.145 C 
ATOM     11  CB  ALA A   1      50.582 -27.674 -11.126  0.00  0.00    +0.028 C 
BRANCH  10  12
ATOM     12  N   ALA A   1      51.803 -25.560 -11.383  0.00  0.00    -0.238 NA
ATOM     13  H   ALA A   1      51.420 -24.696 -10.949  0.00  0.00    +0.142 HD
ENDBRANCH  10  12
ENDBRANCH   6  10
ENDBRANCH   5   8
ENDBRANCH   1   5
BRANCH   3  14
ATOM     14  CA  ASN A   3      46.293 -23.557 -16.879  0.00  0.00    +0.146 C 
BRANCH  14  15
ATOM     15  C   ASN A   3      44.970 -22.768 -16.743  0.00  0.00    +0.227 C 
ATOM     16  O   ASN A   3      44.428 -22.688 -15.640  0.00  0.00    -0.286 OA
ENDBRANCH  14  15
BRANCH  14  17
ATOM     17  CB  ASN A   3      46.350 -24.397 -18.176  0.00  0.00    +0.112 C 
BRANCH  17  18
ATOM     18  CG  ASN A   3      45.405 -25.581 -18.259  0.00  0.00    +0.222 C 
ATOM     19  OD1 ASN A   3      44.327 -25.621 -17.654  0.00  0.00    -0.275 OA
ATOM     20  ND2 ASN A   3      45.775 -26.563 -19.065  0.00  0.00    -0.329 N 
ATOM     21 HD21 ASN A   3      45.155 -27.387 -19.199  0.00  0.00    +0.145 HD
ATOM     22 HD22 ASN A   3      46.686 -26.510 -19.565  0.00  0.00    +0.145 HD
ENDBRANCH  17  18
ENDBRANCH  14  17
ENDBRANCH   3  14
TORSDOF 8
REMARK  Name = ../refined-set-2016/3v7t/3v7t_pocket.pdb
REMARK  208 active torsions:
REMARK  status: ('A' for Active; 'I' for Inactive)
REMARK    1  A    between atoms: _1  and  _5
REMARK    2  A    between atoms: _5  and  _6
REMARK    3  A    between atoms: _5  and  _8
REMARK    4  A    between atoms: _8  and  _9
REMARK    5  A    between atoms: _12  and  _14
REMARK    6  A    between atoms: _14  and  _15
REMARK    7  A    between atoms: _14  and  _17
REMARK    8  A    between atoms: _20  and  _22
REMARK    9  A    between atoms: _22  and  _23
REMARK   10  A    between atoms: _22  and  _25
REMARK   11  A    between atoms: _25  and  _26
REMARK   12  A    between atoms: _32  and  _34
REMARK   13  A    between atoms: _34  and  _35
REMARK   14  A    between atoms: _34  and  _37
REMARK   15  A    between atoms: _37  and  _38
REMARK   16  A    between atoms: _38  and  _56
REMARK   17  A    between atoms: _39  and  _41
REMARK   18  A    between atoms: _41  and  _42
REMARK   19  A    between atoms: _41  and  _44
REMARK   20  A    between atoms: _44  and  _45
REMARK   21  A    between atoms: _50  and  _52
REMARK   22  A    between atoms: _52  and  _53
REMARK   23  A    between atoms: _52  and  _55
REMARK   24  A    between atoms: _55  and  _56
REMARK   25  A    between atoms: _57  and  _59
REMARK   26  A    between atoms: _59  and  _60
REMARK   27  A    between atoms: _59  and  _62
REMARK   28  A    between atoms: _62  and  _63
REMARK   29  A    between atoms: _66  and  _68
REMARK   30  A    between atoms: _68  and  _69
REMARK   31  A    between atoms: _72  and  _74
REMARK   32  A    between atoms: _74  and  _75
REMARK   33  A    between atoms: _74  and  _77
REMARK   34  A    between atoms: _77  and  _78
REMARK   35  A    between atoms: _78  and  _79
REMARK   36  A    between atoms: _84  and  _86
REMARK   37  A    between atoms: _86  and  _87
REMARK   38  A    between atoms: _86  and  _89
REMARK   39  A    between atoms: _89  and  _90
REMARK   40  A    between atoms: _93  and  _95
REMARK   41  A    between atoms: _95  and  _96
REMARK   42  A    between atoms: _95  and  _98
REMARK   43  A    between atoms: _98  and  _99
REMARK   44  A    between atoms: _102  and  _104
REMARK   45  A    between atoms: _104  and  _105
REMARK   46  A    between atoms: _104  and  _107
REMARK   47  A    between atoms: _110  and  _112
REMARK   48  A    between atoms: _112  and  _113
REMARK   49  A    between atoms: _112  and  _115
REMARK   50  A    between atoms: _115  and  _116
REMARK   51  A    between atoms: _119  and  _121
REMARK   52  A    between atoms: _121  and  _122
REMARK   53  A    between atoms: _121  and  _124
REMARK   54  A    between atoms: _124  and  _125
REMARK   55  A    between atoms: _130  and  _132
REMARK   56  A    between atoms: _132  and  _133
REMARK   57  A    between atoms: _132  and  _135
REMARK   58  A    between atoms: _135  and  _136
REMARK   59  A    between atoms: _139  and  _141
REMARK   60  A    between atoms: _141  and  _142
REMARK   61  A    between atoms: _141  and  _144
REMARK   62  A    between atoms: _144  and  _145
REMARK   63  A    between atoms: _150  and  _151
REMARK   64  A    between atoms: _153  and  _155
REMARK   65  A    between atoms: _155  and  _156
REMARK   66  A    between atoms: _159  and  _161
REMARK   67  A    between atoms: _161  and  _162
REMARK   68  A    between atoms: _161  and  _164
REMARK   69  A    between atoms: _164  and  _165
REMARK   70  A    between atoms: _168  and  _170
REMARK   71  A    between atoms: _170  and  _171
REMARK   72  A    between atoms: _170  and  _173
REMARK   73  A    between atoms: _173  and  _174
REMARK   74  A    between atoms: _177  and  _179
REMARK   75  A    between atoms: _179  and  _180
REMARK   76  A    between atoms: _183  and  _185
REMARK   77  A    between atoms: _185  and  _186
REMARK   78  A    between atoms: _188  and  _190
REMARK   79  A    between atoms: _190  and  _191
REMARK   80  A    between atoms: _190  and  _193
REMARK   81  A    between atoms: _193  and  _194
REMARK   82  A    between atoms: _199  and  _201
REMARK   83  A    between atoms: _201  and  _202
REMARK   84  A    between atoms: _201  and  _204
REMARK   85  A    between atoms: _204  and  _205
REMARK   86  A    between atoms: _205  and  _206
REMARK   87  A    between atoms: _206  and  _207
REMARK   88  A    between atoms: _216  and  _218
REMARK   89  A    between atoms: _218  and  _219
REMARK   90  A    between atoms: _218  and  _221
REMARK   91  A    between atoms: _221  and  _222
REMARK   92  A    between atoms: _225  and  _227
REMARK   93  A    between atoms: _227  and  _228
REMARK   94  A    between atoms: _227  and  _230
REMARK   95  A    between atoms: _230  and  _231
REMARK   96  A    between atoms: _233  and  _235
REMARK   97  A    between atoms: _235  and  _236
REMARK   98  A    between atoms: _235  and  _238
REMARK   99  A    between atoms: _238  and  _239
REMARK  100  A    between atoms: _239  and  _350
REMARK  101  A    between atoms: _240  and  _242
REMARK  102  A    between atoms: _242  and  _243
REMARK  103  A    between atoms: _242  and  _245
REMARK  104  A    between atoms: _245  and  _246
REMARK  105  A    between atoms: _246  and  _247
REMARK  106  A    between atoms: _252  and  _254
REMARK  107  A    between atoms: _254  and  _255
REMARK  108  A    between atoms: _257  and  _259
REMARK  109  A    between atoms: _259  and  _260
REMARK  110  A    between atoms: _259  and  _262
REMARK  111  A    between atoms: _262  and  _263
REMARK  112  A    between atoms: _266  and  _268
REMARK  113  A    between atoms: _268  and  _269
REMARK  114  A    between atoms: _268  and  _271
REMARK  115  A    between atoms: _271  and  _272
REMARK  116  A    between atoms: _274  and  _276
REMARK  117  A    between atoms: _276  and  _277
REMARK  118  A    between atoms: _279  and  _281
REMARK  119  A    between atoms: _281  and  _282
REMARK  120  A    between atoms: _284  and  _286
REMARK  121  A    between atoms: _286  and  _287
REMARK  122  A    between atoms: _286  and  _289
REMARK  123  A    between atoms: _292  and  _294
REMARK  124  A    between atoms: _294  and  _295
REMARK  125  A    between atoms: _294  and  _297
REMARK  126  A    between atoms: _300  and  _302
REMARK  127  A    between atoms: _302  and  _303
REMARK  128  A    between atoms: _302  and  _305
REMARK  129  A    between atoms: _305  and  _306
REMARK  130  A    between atoms: _308  and  _310
REMARK  131  A    between atoms: _310  and  _311
REMARK  132  A    between atoms: _310  and  _313
REMARK  133  A    between atoms: _313  and  _314
REMARK  134  A    between atoms: _324  and  _326
REMARK  135  A    between atoms: _326  and  _327
REMARK  136  A    between atoms: _329  and  _331
REMARK  137  A    between atoms: _331  and  _332
REMARK  138  A    between atoms: _331  and  _334
REMARK  139  A    between atoms: _334  and  _335
REMARK  140  A    between atoms: _335  and  _336
REMARK  141  A    between atoms: _339  and  _341
REMARK  142  A    between atoms: _341  and  _342
REMARK  143  A    between atoms: _344  and  _346
REMARK  144  A    between atoms: _346  and  _347
REMARK  145  A    between atoms: _346  and  _349
REMARK  146  A    between atoms: _349  and  _350
REMARK  147  A    between atoms: _351  and  _353
REMARK  148  A    between atoms: _353  and  _354
REMARK  149  A    between atoms: _357  and  _359
REMARK  150  A    between atoms: _359  and  _360
REMARK  151  A    between atoms: _359  and  _362
REMARK  152  A    between atoms: _362  and  _363
REMARK  153  A    between atoms: _363  and  _364
REMARK  154  A    between atoms: _369  and  _371
REMARK  155  A    between atoms: _371  and  _372
REMARK  156  A    between atoms: _371  and  _374
REMARK  157  A    between atoms: _374  and  _375
REMARK  158  A    between atoms: _375  and  _376
REMARK  159  A    between atoms: _376  and  _377
REMARK  160  A    between atoms: _387  and  _388
REMARK  161  A    between atoms: _393  and  _395
REMARK  162  A    between atoms: _395  and  _396
REMARK  163  A    between atoms: _398  and  _400
REMARK  164  A    between atoms: _400  and  _401
REMARK  165  A    between atoms: _400  and  _403
REMARK  166  A    between atoms: _403  and  _404
REMARK  167  A    between atoms: _407  and  _409
REMARK  168  A    between atoms: _409  and  _410
REMARK  169  A    between atoms: _409  and  _412
REMARK  170  A    between atoms: _412  and  _413
REMARK  171  A    between atoms: _418  and  _419
REMARK  172  A    between atoms: _423  and  _424
REMARK  173  A    between atoms: _427  and  _428
REMARK  174  A    between atoms: _433  and  _435
REMARK  175  A    between atoms: _435  and  _436
REMARK  176  A    between atoms: _435  and  _438
REMARK  177  A    between atoms: _438  and  _439
REMARK  178  A    between atoms: _442  and  _444
REMARK  179  A    between atoms: _444  and  _445
REMARK  180  A    between atoms: _444  and  _447
REMARK  181  A    between atoms: _447  and  _448
REMARK  182  A    between atoms: _448  and  _449
REMARK  183  A    between atoms: _449  and  _450
REMARK  184  A    between atoms: _450  and  _451
REMARK  185  A    between atoms: _455  and  _457
REMARK  186  A    between atoms: _457  and  _458
REMARK  187  A    between atoms: _457  and  _460
REMARK  188  A    between atoms: _460  and  _461
REMARK  189  A    between atoms: _467  and  _469
REMARK  190  A    between atoms: _469  and  _470
REMARK  191  A    between atoms: _469  and  _472
REMARK  192  A    between atoms: _472  and  _473
REMARK  193  A    between atoms: _478  and  _479
REMARK  194  A    between atoms: _481  and  _483
REMARK  195  A    between atoms: _483  and  _484
REMARK  196  A    between atoms: _483  and  _486
REMARK  197  A    between atoms: _486  and  _487
REMARK  198  A    between atoms: _490  and  _492
REMARK  199  A    between atoms: _492  and  _493
REMARK  200  A    between atoms: _496  and  _498
REMARK  201  A    between atoms: _498  and  _499
REMARK  202  A    between atoms: _498  and  _501
REMARK  203  A    between atoms: _501  and  _502
REMARK  204  A    between atoms: _502  and  _503
REMARK  205  A    between atoms: _508  and  _510
REMARK  206  A    between atoms: _510  and  _511
REMARK  207  A    between atoms: _510  and  _513
REMARK  208  A    between atoms: _513  and  _514
REMARK                            x       y       z     vdW  Elec       q    Type
REMARK                         _______ _______ _______ _____ _____    ______ ____
ROOT
ATOM      1  SG  TRP A   4      39.799 -19.871  -6.864  0.00  0.00    -0.080 S 
ENDROOT
BRANCH   1   2
ATOM      2  CB  TRP A   4      40.224 -21.617  -6.628  0.00  0.00    +0.098 C 
BRANCH   2   3
ATOM      3  CA  TRP A   4      41.552 -21.851  -5.907  0.00  0.00    +0.160 C 
BRANCH   3   5
ATOM      4  C   SER A   3      42.835 -23.431  -7.271  0.00  0.00    +0.243 C 
ATOM      5  N   TRP A   4      42.064 -23.192  -6.204  0.00  0.00    -0.296 N 
ATOM      6  H   TRP A   4      41.821 -23.979  -5.568  0.00  0.00    +0.150 HD
ATOM      7  O   SER A   3      43.161 -22.541  -8.064  0.00  0.00    -0.273 OA
BRANCH   4   8
ATOM      8  CA  SER A   3      43.299 -24.876  -7.521  0.00  0.00    +0.178 C 
BRANCH   8  10
ATOM      9  C   VAL A   2      42.959 -25.194  -9.967  0.00  0.00    +0.241 C 
ATOM     10  N   SER A   3      43.731 -24.904  -8.909  0.00  0.00    -0.295 N 
ATOM     11  H   SER A   3      44.728 -24.679  -9.099  0.00  0.00    +0.150 HD
ATOM     12  O   VAL A   2      41.794 -25.587  -9.875  0.00  0.00    -0.273 OA
BRANCH   9  13
ATOM     13  CA  VAL A   2      43.611 -24.984 -11.332  0.00  0.00    +0.160 C 
BRANCH  13  15
ATOM     14  C   VAL A   1      43.388 -25.780 -13.677  0.00  0.00    +0.238 C 
ATOM     15  N   VAL A   2      42.903 -25.679 -12.418  0.00  0.00    -0.297 N 
ATOM     16  H   VAL A   2      41.983 -26.115 -12.207  0.00  0.00    +0.150 HD
ATOM     17  O   VAL A   1      44.468 -25.300 -14.022  0.00  0.00    -0.274 OA
BRANCH  14  18
ATOM     18  CA  VAL A   1      42.532 -26.510 -14.709  0.00  0.00    +0.145 C 
BRANCH  18  19
ATOM     19  N   VAL A   1      42.234 -25.637 -15.848  0.00  0.00    -0.238 NA
ATOM     20  H   VAL A   1      43.035 -25.187 -16.335  0.00  0.00    +0.142 HD
ENDBRANCH  18  19
BRANCH  18  21
ATOM     21  CB  VAL A   1      43.255 -27.778 -15.210  0.00  0.00    +0.030 C 
BRANCH  21  22
ATOM     22  CG  VAL A   1      42.464 -28.569 -16.252  0.00  0.00    +0.045 C 
BRANCH  22  23
ATOM     23  CD  VAL A   1      43.357 -29.282 -17.246  0.00  0.00    +0.174 C 
BRANCH  23  24
ATOM     24  NE  VAL A   1      42.583 -30.102 -18.181  0.00  0.00    -0.265 N 
ATOM     25  CZ  VAL A   1      42.214 -31.361 -17.955  0.00  0.00    +0.342 C 
ATOM     26  NH2 VAL A   1      42.540 -31.963 -16.816  0.00  0.00    -0.292 N 
ATOM     27 HH21 VAL A   1      43.087 -31.450 -16.095  0.00  0.00    +0.255 HD
ATOM     28 HH22 VAL A   1      42.249 -32.947 -16.646  0.00  0.00    +0.255 HD
ATOM     29  NH1 VAL A   1      41.511 -32.025 -18.862  0.00  0.00    -0.292 N 
ATOM     30 HH11 VAL A   1      41.225 -33.008 -18.681  0.00  0.00    +0.255 HD
ATOM     31 HH12 VAL A   1      41.245 -31.562 -19.755  0.00  0.00    +0.255 HD
ATOM     32  HE  VAL A   1      42.302 -29.670 -19.085  0.00  0.00    +0.259 HD
ENDBRANCH  23  24
ENDBRANCH  22  23
ENDBRANCH  21  22
ENDBRANCH  18  21
ENDBRANCH  14  18
ENDBRANCH  13  15
BRANCH  13  33
ATOM     33  CB  VAL A   2      43.674 -23.456 -11.618  0.00  0.00    +0.143 C 
BRANCH  33  34
ATOM     34  CG  VAL A   2      44.763 -22.671 -10.894  0.00  0.00    +0.367 C 
ATOM     35  OD2 VAL A   2      45.593 -23.299 -10.195  0.00  0.00    -0.246 OA
ATOM     36  OD1 VAL A   2      44.798 -21.431 -11.044  0.00  0.00    -0.246 OA
ENDBRANCH  33  34
ENDBRANCH  13  33
ENDBRANCH   9  13
ENDBRANCH   8  10
BRANCH   8  37
ATOM     37  CB  SER A   3      44.463 -25.231  -6.601  0.00  0.00    +0.166 C 
BRANCH  37  38
ATOM     38  OG  SER A   3      45.565 -24.356  -6.783  0.00  0.00    -0.380 OA
ATOM     39  H   SER A   3      46.297 -24.618  -6.171  0.00  0.00    +0.211 HD
ENDBRANCH  37  38
ENDBRANCH   8  37
ENDBRANCH   4   8
ENDBRANCH   3   5
BRANCH   3  40
ATOM     40  C   TRP A   4      41.432 -21.606  -4.403  0.00  0.00    +0.242 C 
ATOM     41  O   TRP A   4      41.826 -22.469  -3.619  0.00  0.00    -0.273 OA
ATOM     42  N   GLY A   5      40.912 -20.421  -4.001  0.00  0.00    -0.297 N 
ATOM     43  H   GLY A   5      40.653 -19.725  -4.729  0.00  0.00    +0.150 HD
BRANCH  42  44
ATOM     44  CA  GLY A   5      40.696 -20.069  -2.597  0.00  0.00    +0.149 C 
BRANCH  44  45
ATOM     45  C   GLY A   5      39.757 -21.106  -1.974  0.00  0.00    +0.241 C 
ATOM     46  N   GLU A   6      40.212 -21.706  -0.880  0.00  0.00    -0.295 N 
ATOM     47  H   GLU A   6      41.131 -21.398  -0.503  0.00  0.00    +0.150 HD
ATOM     48  O   GLY A   5      38.692 -21.391  -2.529  0.00  0.00    -0.273 OA
BRANCH  46  49
ATOM     49  CA  GLU A   6      39.507 -22.768  -0.174  0.00  0.00    +0.176 C 
BRANCH  49  50
ATOM     50  C   GLU A   6      40.212 -24.103  -0.319  0.00  0.00    +0.243 C 
ATOM     51  O   GLU A   6      40.039 -24.989   0.522  0.00  0.00    -0.273 OA
ATOM     52  N   GLY A   7      41.006 -24.258  -1.403  0.00  0.00    -0.296 N 
ATOM     53  H   GLY A   7      41.056 -23.474  -2.084  0.00  0.00    +0.150 HD
BRANCH  52  54
ATOM     54  CA  GLY A   7      41.801 -25.459  -1.681  0.00  0.00    +0.160 C 
BRANCH  54  55
ATOM     55  C   GLY A   7      43.158 -25.379  -0.992  0.00  0.00    +0.241 C 
ATOM     56  N   CYS A   8      43.546 -24.166  -0.529  0.00  0.00    -0.295 N 
ATOM     57  H   CYS A   8      42.890 -23.372  -0.670  0.00  0.00    +0.150 HD
ATOM     58  O   GLY A   7      43.841 -26.397  -0.890  0.00  0.00    -0.273 OA
BRANCH  56  59
ATOM     59  CA  CYS A   8      44.811 -23.876   0.154  0.00  0.00    +0.178 C 
BRANCH  59  60
ATOM     60  C   CYS A   8      45.111 -24.858   1.274  0.00  0.00    +0.243 C 
ATOM     61  O   CYS A   8      44.219 -25.197   2.051  0.00  0.00    -0.273 OA
ATOM     62  N   ALA A   9      46.350 -25.339   1.311  0.00  0.00    -0.295 N 
ATOM     63  H   ALA A   9      47.038 -24.995   0.611  0.00  0.00    +0.150 HD
BRANCH  62  64
ATOM     64  CA  ALA A   9      46.785 -26.327   2.290  0.00  0.00    +0.176 C 
BRANCH  64  65
ATOM     65  C   ALA A   9      46.611 -27.755   1.814  0.00  0.00    +0.243 C 
ATOM     66  O   ALA A   9      47.275 -28.663   2.321  0.00  0.00    -0.273 OA
ATOM     67  N   GLN A  10      45.727 -27.935   0.833  0.00  0.00    -0.296 N 
ATOM     68  H   GLN A  10      45.224 -27.096   0.480  0.00  0.00    +0.150 HD
BRANCH  67  69
ATOM     69  CA  GLN A  10      45.413 -29.217   0.219  0.00  0.00    +0.163 C 
BRANCH  69  70
ATOM     70  C   GLN A  10      46.556 -29.826  -0.568  0.00  0.00    +0.229 C 
ATOM     71  O   GLN A  10      47.528 -29.135  -0.897  0.00  0.00    -0.286 OA
ENDBRANCH  69  70
ENDBRANCH  67  69
ENDBRANCH  64  65
ENDBRANCH  62  64
ENDBRANCH  59  60
BRANCH  59  72
ATOM     72  CB  CYS A   8      44.823 -22.450   0.683  0.00  0.00    +0.166 C 
BRANCH  72  73
ATOM     73  O   CYS A   8      44.862 -21.512  -0.380  0.00  0.00    -0.380 OA
ATOM     74  H   CYS A   8      44.869 -20.594  -0.009  0.00  0.00    +0.211 HD
ENDBRANCH  72  73
ENDBRANCH  59  72
ENDBRANCH  56  59
ENDBRANCH  54  55
BRANCH  54  75
ATOM     75  CB  GLY A   7      42.013 -25.650  -3.194  0.00  0.00    +0.143 C 
BRANCH  75  76
ATOM     76  CG  GLY A   7      40.750 -25.889  -3.987  0.00  0.00    +0.367 C 
ATOM     77  OD2 GLY A   7      39.925 -26.716  -3.552  0.00  0.00    -0.246 OA
ATOM     78  OD1 GLY A   7      40.612 -25.290  -5.069  0.00  0.00    -0.246 OA
ENDBRANCH  75  76
ENDBRANCH  54  75
ENDBRANCH  52  54
ENDBRANCH  49  50
ENDBRANCH  46  49
ENDBRANCH  44  45
BRANCH  44  79
ATOM     79  CB  GLY A   5      40.133 -18.643  -2.458  0.00  0.00    +0.039 C 
BRANCH  79  80
ATOM     80  CG  GLY A   5      40.304 -18.065  -1.050  0.00  0.00    +0.087 C 
BRANCH  80  81
ATOM     81  CD  GLY A   5      40.050 -16.577  -0.938  0.00  0.00    +0.219 C 
ATOM     82  NE2 GLY A   5      40.003 -16.086   0.291  0.00  0.00    -0.329 N 
ATOM     83 HE21 GLY A   5      40.113 -16.719   1.109  0.00  0.00    +0.145 HD
ATOM     84 HE22 GLY A   5      39.856 -15.067   0.439  0.00  0.00    +0.145 HD
ATOM     85  OE1 GLY A   5      39.922 -15.847  -1.931  0.00  0.00    -0.275 OA
ENDBRANCH  80  81
ENDBRANCH  79  80
ENDBRANCH  44  79
ENDBRANCH  42  44
ENDBRANCH   3  40
ENDBRANCH   2   3
ENDBRANCH   1   2
BRANCH   1  86
ATOM     86  SG  CYS A   8      41.457 -19.060  -7.719  0.00  0.00    -0.080 S 
BRANCH  86  87
ATOM     87  CB  CYS A   8      41.250 -19.346  -9.499  0.00  0.00    +0.098 C 
BRANCH  87  88
ATOM     88  CA  CYS A   8      42.367 -18.755 -10.356  0.00  0.00    +0.160 C 
BRANCH  88  89
ATOM     89  N   CYS A   8      42.536 -17.333 -10.072  0.00  0.00    -0.296 N 
ATOM     90  C   GLY A   7      43.563 -16.842  -9.376  0.00  0.00    +0.243 C 
ATOM     91  O   GLY A   7      44.471 -17.552  -8.930  0.00  0.00    -0.273 OA
ATOM     92  H   CYS A   8      41.820 -16.669 -10.430  0.00  0.00    +0.150 HD
BRANCH  90  93
ATOM     93  CA  GLY A   7      43.583 -15.340  -9.170  0.00  0.00    +0.176 C 
BRANCH  93  94
ATOM     94  N   GLY A   7      44.923 -14.874  -8.843  0.00  0.00    -0.295 N 
ATOM     95  H   GLY A   7      45.111 -14.557  -7.871  0.00  0.00    +0.150 HD
ATOM     96  C   GLU A   6      45.919 -14.833  -9.722  0.00  0.00    +0.241 C 
ATOM     97  O   GLU A   6      45.821 -15.207 -10.896  0.00  0.00    -0.273 OA
BRANCH  96  98
ATOM     98  CA  GLU A   6      47.259 -14.402  -9.153  0.00  0.00    +0.149 C 
BRANCH  98  99
ATOM     99  N   GLU A   6      47.957 -15.628  -8.783  0.00  0.00    -0.297 N 
ATOM    100  C   GLY A   5      47.744 -16.236  -7.605  0.00  0.00    +0.243 C 
ATOM    101  O   GLY A   5      47.000 -15.773  -6.737  0.00  0.00    -0.273 OA
ATOM    102  H   GLU A   6      48.639 -16.043  -9.450  0.00  0.00    +0.150 HD
BRANCH 100 103
ATOM    103  CA  GLY A   5      48.471 -17.538  -7.360  0.00  0.00    +0.176 C 
BRANCH 103 104
ATOM    104  N   GLY A   5      48.526 -17.847  -5.940  0.00  0.00    -0.295 N 
ATOM    105  H   GLY A   5      48.324 -17.073  -5.275  0.00  0.00    +0.150 HD
ATOM    106  C   TRP A   4      48.812 -19.034  -5.422  0.00  0.00    +0.241 C 
ATOM    107  O   TRP A   4      49.043 -20.043  -6.089  0.00  0.00    -0.273 OA
BRANCH 106 108
ATOM    108  CA  TRP A   4      48.839 -19.077  -3.896  0.00  0.00    +0.153 C 
BRANCH 108 109
ATOM    109  N   TRP A   4      49.373 -20.330  -3.363  0.00  0.00    -0.297 N 
ATOM    110  C   SER A   3      49.104 -20.761  -2.117  0.00  0.00    +0.243 C 
ATOM    111  O   SER A   3      48.371 -20.149  -1.341  0.00  0.00    -0.273 OA
ATOM    112  H   TRP A   4      49.985 -20.911  -3.971  0.00  0.00    +0.150 HD
BRANCH 110 113
ATOM    113  CA  SER A   3      49.771 -22.052  -1.650  0.00  0.00    +0.178 C 
BRANCH 113 114
ATOM    114  N   SER A   3      49.265 -23.259  -2.293  0.00  0.00    -0.295 N 
ATOM    115  C   VAL A   2      48.567 -24.194  -1.632  0.00  0.00    +0.241 C 
ATOM    116  O   VAL A   2      48.283 -24.112  -0.437  0.00  0.00    -0.273 OA
ATOM    117  H   SER A   3      49.453 -23.401  -3.306  0.00  0.00    +0.150 HD
BRANCH 115 118
ATOM    118  CA  VAL A   2      48.186 -25.446  -2.420  0.00  0.00    +0.148 C 
BRANCH 118 119
ATOM    119  N   VAL A   2      48.867 -26.611  -1.826  0.00  0.00    -0.297 N 
ATOM    120  H   VAL A   2      48.295 -27.444  -1.580  0.00  0.00    +0.150 HD
ATOM    121  C   VAL A   1      50.204 -26.652  -1.583  0.00  0.00    +0.238 C 
ATOM    122  O   VAL A   1      50.969 -25.725  -1.863  0.00  0.00    -0.274 OA
BRANCH 121 123
ATOM    123  CA  VAL A   1      50.786 -27.926  -0.958  0.00  0.00    +0.145 C 
BRANCH 123 124
ATOM    124  CB  VAL A   1      51.406 -27.645   0.446  0.00  0.00    +0.025 C 
ATOM    125  CG2 VAL A   1      50.363 -27.103   1.419  0.00  0.00    +0.002 C 
ATOM    126  CG1 VAL A   1      52.084 -28.884   1.025  0.00  0.00    +0.002 C 
ENDBRANCH 123 124
BRANCH 123 127
ATOM    127  N   VAL A   1      51.795 -28.383  -1.914  0.00  0.00    -0.238 NA
ATOM    128  H   VAL A   1      52.543 -27.706  -2.167  0.00  0.00    +0.142 HD
ENDBRANCH 123 127
ENDBRANCH 121 123
ENDBRANCH 118 119
BRANCH 118 129
ATOM    129  CB  VAL A   2      46.645 -25.605  -2.550  0.00  0.00    +0.027 C 
ATOM    130  CG2 VAL A   2      46.264 -26.944  -3.166  0.00  0.00    +0.002 C 
ATOM    131  CG1 VAL A   2      46.038 -24.454  -3.350  0.00  0.00    +0.002 C 
ENDBRANCH 118 129
ENDBRANCH 115 118
ENDBRANCH 113 114
BRANCH 113 132
ATOM    132  CB  SER A   3      51.291 -21.976  -1.789  0.00  0.00    +0.166 C 
BRANCH 132 133
ATOM    133  OG  SER A   3      51.821 -20.847  -1.116  0.00  0.00    -0.380 OA
ATOM    134  H   SER A   3      52.805 -20.830  -1.227  0.00  0.00    +0.211 HD
ENDBRANCH 132 133
ENDBRANCH 113 132
ENDBRANCH 110 113
ENDBRANCH 108 109
BRANCH 108 135
ATOM    135  CB  TRP A   4      49.625 -17.871  -3.326  0.00  0.00    +0.057 C 
BRANCH 135 136
ATOM    136  CG  TRP A   4      51.061 -17.794  -3.767  0.00  0.00    -0.002 A 
ATOM    137  CD1 TRP A   4      52.100 -18.553  -3.317  0.00  0.00    +0.068 A 
ATOM    138  NE1 TRP A   4      53.268 -18.171  -3.934  0.00  0.00    -0.352 N 
ATOM    139  HE1 TRP A   4      54.201 -18.605  -3.782  0.00  0.00    +0.166 HD
ATOM    140  CE2 TRP A   4      53.005 -17.127  -4.782  0.00  0.00    +0.056 A 
ATOM    141  CZ2 TRP A   4      53.863 -16.389  -5.606  0.00  0.00    +0.017 A 
ATOM    142  CH2 TRP A   4      53.302 -15.388  -6.366  0.00  0.00    +0.001 A 
ATOM    143  CZ3 TRP A   4      51.932 -15.097  -6.301  0.00  0.00    +0.000 A 
ATOM    144  CE3 TRP A   4      51.087 -15.814  -5.471  0.00  0.00    +0.001 A 
ATOM    145  CD2 TRP A   4      51.621 -16.857  -4.696  0.00  0.00    +0.013 A 
ENDBRANCH 135 136
ENDBRANCH 108 135
ENDBRANCH 106 108
ENDBRANCH 103 104
ENDBRANCH 100 103
ENDBRANCH  98  99
BRANCH  98 146
ATOM    146  CB  GLU A   6      48.070 -13.574 -10.151  0.00  0.00    +0.041 C 
BRANCH 146 147
ATOM    147  CG  GLU A   6      49.133 -12.720  -9.487  0.00  0.00    +0.116 C 
BRANCH 147 148
ATOM    148  CD  GLU A   6      49.961 -11.897 -10.452  0.00  0.00    +0.365 C 
ATOM    149  OE2 GLU A   6      51.207 -11.960 -10.359  0.00  0.00    -0.246 OA
ATOM    150  OE1 GLU A   6      49.370 -11.176 -11.287  0.00  0.00    -0.246 OA
ENDBRANCH 147 148
ENDBRANCH 146 147
ENDBRANCH  98 146
ENDBRANCH  96  98
ENDBRANCH  93  94
ENDBRANCH  90  93
ENDBRANCH  88  89
BRANCH  88 151
ATOM    151  C   CYS A   8      42.116 -18.958 -11.845  0.00  0.00    +0.242 C 
ATOM    152  O   CYS A   8      41.253 -18.289 -12.419  0.00  0.00    -0.273 OA
ATOM    153  N   ALA A   9      42.915 -19.851 -12.473  0.00  0.00    -0.297 N 
ATOM    154  H   ALA A   9      43.620 -20.341 -11.886  0.00  0.00    +0.150 HD
BRANCH 153 155
ATOM    155  CA  ALA A   9      42.889 -20.200 -13.902  0.00  0.00    +0.149 C 
ATOM    156  CB  ALA A   9      41.700 -21.106 -14.214  0.00  0.00    +0.031 C 
BRANCH 155 157
ATOM    157  C   ALA A   9      42.925 -18.972 -14.839  0.00  0.00    +0.241 C 
ATOM    158  N   GLN A  10      43.769 -17.983 -14.499  0.00  0.00    -0.298 N 
ATOM    159  H   GLN A  10      44.344 -18.098 -13.640  0.00  0.00    +0.150 HD
ATOM    160  O   ALA A   9      42.201 -18.919 -15.838  0.00  0.00    -0.273 OA
BRANCH 158 161
ATOM    161  CA  GLN A  10      43.921 -16.751 -15.277  0.00  0.00    +0.137 C 
BRANCH 161 162
ATOM    162  C   GLN A  10      45.057 -16.893 -16.309  0.00  0.00    +0.227 C 
ATOM    163  O   GLN A  10      45.990 -17.656 -16.047  0.00  0.00    -0.286 OA
ENDBRANCH 161 162
BRANCH 161 164
ATOM    164  CB  GLN A  10      44.161 -15.539 -14.349  0.00  0.00    +0.037 C 
BRANCH 164 165
ATOM    165  CG  GLN A  10      42.978 -15.179 -13.438  0.00  0.00    +0.087 C 
BRANCH 165 166
ATOM    166  CD  GLN A  10      41.780 -14.649 -14.192  0.00  0.00    +0.219 C 
ATOM    167  NE2 GLN A  10      41.760 -13.350 -14.447  0.00  0.00    -0.329 N 
ATOM    168 HE21 GLN A  10      42.549 -12.747 -14.138  0.00  0.00    +0.145 HD
ATOM    169 HE22 GLN A  10      40.955 -12.932 -14.956  0.00  0.00    +0.145 HD
ATOM    170  OE1 GLN A  10      40.860 -15.393 -14.544  0.00  0.00    -0.275 OA
ENDBRANCH 165 166
ENDBRANCH 164 165
ENDBRANCH 161 164
ENDBRANCH 158 161
ENDBRANCH 155 157
ENDBRANCH 153 155
ENDBRANCH  88 151
ENDBRANCH  87  88
ENDBRANCH  86  87
ENDBRANCH   1  86
TORSDOF 72
REMARK  Name = ../refined-set-2016/3v7t/3v7t_pocket.pdb
REMARK  208 active torsions:
REMARK  status: ('A' for Active; 'I' for Inactive)
REMARK    1  A    between atoms: _1  and  _5
REMARK    2  A    between atoms: _5  and  _6
REMARK    3  A    between atoms: _5  and  _8
REMARK    4  A    between atoms: _8  and  _9
REMARK    5  A    between atoms: _12  and  _14
REMARK    6  A    between atoms: _14  and  _15
REMARK    7  A    between atoms: _14  and  _17
REMARK    8  A    between atoms: _20  and  _22
REMARK    9  A    between atoms: _22  and  _23
REMARK   10  A    between atoms: _22  and  _25
REMARK   11  A    between atoms: _25  and  _26
REMARK   12  A    between atoms: _32  and  _34
REMARK   13  A    between atoms: _34  and  _35
REMARK   14  A    between atoms: _34  and  _37
REMARK   15  A    between atoms: _37  and  _38
REMARK   16  A    between atoms: _38  and  _56
REMARK   17  A    between atoms: _39  and  _41
REMARK   18  A    between atoms: _41  and  _42
REMARK   19  A    between atoms: _41  and  _44
REMARK   20  A    between atoms: _44  and  _45
REMARK   21  A    between atoms: _50  and  _52
REMARK   22  A    between atoms: _52  and  _53
REMARK   23  A    between atoms: _52  and  _55
REMARK   24  A    between atoms: _55  and  _56
REMARK   25  A    between atoms: _57  and  _59
REMARK   26  A    between atoms: _59  and  _60
REMARK   27  A    between atoms: _59  and  _62
REMARK   28  A    between atoms: _62  and  _63
REMARK   29  A    between atoms: _66  and  _68
REMARK   30  A    between atoms: _68  and  _69
REMARK   31  A    between atoms: _72  and  _74
REMARK   32  A    between atoms: _74  and  _75
REMARK   33  A    between atoms: _74  and  _77
REMARK   34  A    between atoms: _77  and  _78
REMARK   35  A    between atoms: _78  and  _79
REMARK   36  A    between atoms: _84  and  _86
REMARK   37  A    between atoms: _86  and  _87
REMARK   38  A    between atoms: _86  and  _89
REMARK   39  A    between atoms: _89  and  _90
REMARK   40  A    between atoms: _93  and  _95
REMARK   41  A    between atoms: _95  and  _96
REMARK   42  A    between atoms: _95  and  _98
REMARK   43  A    between atoms: _98  and  _99
REMARK   44  A    between atoms: _102  and  _104
REMARK   45  A    between atoms: _104  and  _105
REMARK   46  A    between atoms: _104  and  _107
REMARK   47  A    between atoms: _110  and  _112
REMARK   48  A    between atoms: _112  and  _113
REMARK   49  A    between atoms: _112  and  _115
REMARK   50  A    between atoms: _115  and  _116
REMARK   51  A    between atoms: _119  and  _121
REMARK   52  A    between atoms: _121  and  _122
REMARK   53  A    between atoms: _121  and  _124
REMARK   54  A    between atoms: _124  and  _125
REMARK   55  A    between atoms: _130  and  _132
REMARK   56  A    between atoms: _132  and  _133
REMARK   57  A    between atoms: _132  and  _135
REMARK   58  A    between atoms: _135  and  _136
REMARK   59  A    between atoms: _139  and  _141
REMARK   60  A    between atoms: _141  and  _142
REMARK   61  A    between atoms: _141  and  _144
REMARK   62  A    between atoms: _144  and  _145
REMARK   63  A    between atoms: _150  and  _151
REMARK   64  A    between atoms: _153  and  _155
REMARK   65  A    between atoms: _155  and  _156
REMARK   66  A    between atoms: _159  and  _161
REMARK   67  A    between atoms: _161  and  _162
REMARK   68  A    between atoms: _161  and  _164
REMARK   69  A    between atoms: _164  and  _165
REMARK   70  A    between atoms: _168  and  _170
REMARK   71  A    between atoms: _170  and  _171
REMARK   72  A    between atoms: _170  and  _173
REMARK   73  A    between atoms: _173  and  _174
REMARK   74  A    between atoms: _177  and  _179
REMARK   75  A    between atoms: _179  and  _180
REMARK   76  A    between atoms: _183  and  _185
REMARK   77  A    between atoms: _185  and  _186
REMARK   78  A    between atoms: _188  and  _190
REMARK   79  A    between atoms: _190  and  _191
REMARK   80  A    between atoms: _190  and  _193
REMARK   81  A    between atoms: _193  and  _194
REMARK   82  A    between atoms: _199  and  _201
REMARK   83  A    between atoms: _201  and  _202
REMARK   84  A    between atoms: _201  and  _204
REMARK   85  A    between atoms: _204  and  _205
REMARK   86  A    between atoms: _205  and  _206
REMARK   87  A    between atoms: _206  and  _207
REMARK   88  A    between atoms: _216  and  _218
REMARK   89  A    between atoms: _218  and  _219
REMARK   90  A    between atoms: _218  and  _221
REMARK   91  A    between atoms: _221  and  _222
REMARK   92  A    between atoms: _225  and  _227
REMARK   93  A    between atoms: _227  and  _228
REMARK   94  A    between atoms: _227  and  _230
REMARK   95  A    between atoms: _230  and  _231
REMARK   96  A    between atoms: _233  and  _235
REMARK   97  A    between atoms: _235  and  _236
REMARK   98  A    between atoms: _235  and  _238
REMARK   99  A    between atoms: _238  and  _239
REMARK  100  A    between atoms: _239  and  _350
REMARK  101  A    between atoms: _240  and  _242
REMARK  102  A    between atoms: _242  and  _243
REMARK  103  A    between atoms: _242  and  _245
REMARK  104  A    between atoms: _245  and  _246
REMARK  105  A    between atoms: _246  and  _247
REMARK  106  A    between atoms: _252  and  _254
REMARK  107  A    between atoms: _254  and  _255
REMARK  108  A    between atoms: _257  and  _259
REMARK  109  A    between atoms: _259  and  _260
REMARK  110  A    between atoms: _259  and  _262
REMARK  111  A    between atoms: _262  and  _263
REMARK  112  A    between atoms: _266  and  _268
REMARK  113  A    between atoms: _268  and  _269
REMARK  114  A    between atoms: _268  and  _271
REMARK  115  A    between atoms: _271  and  _272
REMARK  116  A    between atoms: _274  and  _276
REMARK  117  A    between atoms: _276  and  _277
REMARK  118  A    between atoms: _279  and  _281
REMARK  119  A    between atoms: _281  and  _282
REMARK  120  A    between atoms: _284  and  _286
REMARK  121  A    between atoms: _286  and  _287
REMARK  122  A    between atoms: _286  and  _289
REMARK  123  A    between atoms: _292  and  _294
REMARK  124  A    between atoms: _294  and  _295
REMARK  125  A    between atoms: _294  and  _297
REMARK  126  A    between atoms: _300  and  _302
REMARK  127  A    between atoms: _302  and  _303
REMARK  128  A    between atoms: _302  and  _305
REMARK  129  A    between atoms: _305  and  _306
REMARK  130  A    between atoms: _308  and  _310
REMARK  131  A    between atoms: _310  and  _311
REMARK  132  A    between atoms: _310  and  _313
REMARK  133  A    between atoms: _313  and  _314
REMARK  134  A    between atoms: _324  and  _326
REMARK  135  A    between atoms: _326  and  _327
REMARK  136  A    between atoms: _329  and  _331
REMARK  137  A    between atoms: _331  and  _332
REMARK  138  A    between atoms: _331  and  _334
REMARK  139  A    between atoms: _334  and  _335
REMARK  140  A    between atoms: _335  and  _336
REMARK  141  A    between atoms: _339  and  _341
REMARK  142  A    between atoms: _341  and  _342
REMARK  143  A    between atoms: _344  and  _346
REMARK  144  A    between atoms: _346  and  _347
REMARK  145  A    between atoms: _346  and  _349
REMARK  146  A    between atoms: _349  and  _350
REMARK  147  A    between atoms: _351  and  _353
REMARK  148  A    between atoms: _353  and  _354
REMARK  149  A    between atoms: _357  and  _359
REMARK  150  A    between atoms: _359  and  _360
REMARK  151  A    between atoms: _359  and  _362
REMARK  152  A    between atoms: _362  and  _363
REMARK  153  A    between atoms: _363  and  _364
REMARK  154  A    between atoms: _369  and  _371
REMARK  155  A    between atoms: _371  and  _372
REMARK  156  A    between atoms: _371  and  _374
REMARK  157  A    between atoms: _374  and  _375
REMARK  158  A    between atoms: _375  and  _376
REMARK  159  A    between atoms: _376  and  _377
REMARK  160  A    between atoms: _387  and  _388
REMARK  161  A    between atoms: _393  and  _395
REMARK  162  A    between atoms: _395  and  _396
REMARK  163  A    between atoms: _398  and  _400
REMARK  164  A    between atoms: _400  and  _401
REMARK  165  A    between atoms: _400  and  _403
REMARK  166  A    between atoms: _403  and  _404
REMARK  167  A    between atoms: _407  and  _409
REMARK  168  A    between atoms: _409  and  _410
REMARK  169  A    between atoms: _409  and  _412
REMARK  170  A    between atoms: _412  and  _413
REMARK  171  A    between atoms: _418  and  _419
REMARK  172  A    between atoms: _423  and  _424
REMARK  173  A    between atoms: _427  and  _428
REMARK  174  A    between atoms: _433  and  _435
REMARK  175  A    between atoms: _435  and  _436
REMARK  176  A    between atoms: _435  and  _438
REMARK  177  A    between atoms: _438  and  _439
REMARK  178  A    between atoms: _442  and  _444
REMARK  179  A    between atoms: _444  and  _445
REMARK  180  A    between atoms: _444  and  _447
REMARK  181  A    between atoms: _447  and  _448
REMARK  182  A    between atoms: _448  and  _449
REMARK  183  A    between atoms: _449  and  _450
REMARK  184  A    between atoms: _450  and  _451
REMARK  185  A    between atoms: _455  and  _457
REMARK  186  A    between atoms: _457  and  _458
REMARK  187  A    between atoms: _457  and  _460
REMARK  188  A    between atoms: _460  and  _461
REMARK  189  A    between atoms: _467  and  _469
REMARK  190  A    between atoms: _469  and  _470
REMARK  191  A    between atoms: _469  and  _472
REMARK  192  A    between atoms: _472  and  _473
REMARK  193  A    between atoms: _478  and  _479
REMARK  194  A    between atoms: _481  and  _483
REMARK  195  A    between atoms: _483  and  _484
REMARK  196  A    between atoms: _483  and  _486
REMARK  197  A    between atoms: _486  and  _487
REMARK  198  A    between atoms: _490  and  _492
REMARK  199  A    between atoms: _492  and  _493
REMARK  200  A    between atoms: _496  and  _498
REMARK  201  A    between atoms: _498  and  _499
REMARK  202  A    between atoms: _498  and  _501
REMARK  203  A    between atoms: _501  and  _502
REMARK  204  A    between atoms: _502  and  _503
REMARK  205  A    between atoms: _508  and  _510
REMARK  206  A    between atoms: _510  and  _511
REMARK  207  A    between atoms: _510  and  _513
REMARK  208  A    between atoms: _513  and  _514
REMARK                            x       y       z     vdW  Elec       q    Type
REMARK                         _______ _______ _______ _____ _____    ______ ____
ROOT
ATOM      1  C   PRO A   2      49.509 -20.998 -11.613  0.00  0.00    +0.241 C 
ATOM      2  O   PRO A   2      50.064 -20.096 -10.980  0.00  0.00    -0.273 OA
ATOM      3  N   GLY A   3      48.857 -22.010 -11.044  0.00  0.00    -0.295 N 
ATOM      4  H   GLY A   3      48.389 -22.705 -11.660  0.00  0.00    +0.150 HD
ENDROOT
BRANCH   1   8
ATOM      5  C   ARG A   1      48.911 -18.637 -13.498  0.00  0.00    +0.241 C 
ATOM      6  O   ARG A   1      47.870 -18.820 -12.859  0.00  0.00    -0.273 OA
ATOM      7  N   PRO A   2      49.804 -19.645 -13.695  0.00  0.00    -0.272 N 
ATOM      8  CA  PRO A   2      49.526 -20.984 -13.139  0.00  0.00    +0.152 C 
ATOM      9  CB  PRO A   2      50.673 -21.848 -13.683  0.00  0.00    +0.031 C 
ATOM     10  CG  PRO A   2      51.275 -21.062 -14.799  0.00  0.00    +0.024 C 
ATOM     11  CD  PRO A   2      51.092 -19.634 -14.418  0.00  0.00    +0.094 C 
BRANCH   5  12
ATOM     12  CA  ARG A   1      49.212 -17.231 -14.066  0.00  0.00    +0.145 C 
BRANCH  12  13
ATOM     13  N   ARG A   1      49.115 -17.189 -15.526  0.00  0.00    -0.238 NA
ATOM     14  H   ARG A   1      48.240 -17.523 -15.979  0.00  0.00    +0.142 HD
ENDBRANCH  12  13
BRANCH  12  15
ATOM     15  CB  ARG A   1      48.330 -16.139 -13.410  0.00  0.00    +0.030 C 
BRANCH  15  16
ATOM     16  CG  ARG A   1      48.633 -14.693 -13.825  0.00  0.00    +0.045 C 
BRANCH  16  17
ATOM     17  CD  ARG A   1      49.990 -14.194 -13.347  0.00  0.00    +0.174 C 
BRANCH  17  18
ATOM     18  NE  ARG A   1      50.188 -12.777 -13.654  0.00  0.00    -0.265 N 
ATOM     19  HE  ARG A   1      49.885 -12.080 -12.944  0.00  0.00    +0.259 HD
ATOM     20  CZ  ARG A   1      50.729 -12.320 -14.779  0.00  0.00    +0.342 C 
ATOM     21  NH2 ARG A   1      50.860 -11.016 -14.975  0.00  0.00    -0.292 N 
ATOM     22 HH21 ARG A   1      50.539 -10.346 -14.247  0.00  0.00    +0.255 HD
ATOM     23 HH22 ARG A   1      51.284 -10.663 -15.857  0.00  0.00    +0.255 HD
ATOM     24  NH1 ARG A   1      51.137 -13.164 -15.719  0.00  0.00    -0.292 N 
ATOM     25 HH11 ARG A   1      51.034 -14.189 -15.578  0.00  0.00    +0.255 HD
ATOM     26 HH12 ARG A   1      51.559 -12.800 -16.597  0.00  0.00    +0.255 HD
ENDBRANCH  17  18
ENDBRANCH  16  17
ENDBRANCH  15  16
ENDBRANCH  12  15
ENDBRANCH   5  12
ENDBRANCH   1   8
BRANCH   3  27
ATOM     27  CA  GLY A   3      48.767 -22.191  -9.600  0.00  0.00    +0.176 C 
BRANCH  27  28
ATOM     28  C   GLY A   3      50.126 -22.465  -8.994  0.00  0.00    +0.243 C 
ATOM     29  N   ILE A   4      50.409 -21.843  -7.841  0.00  0.00    -0.297 N 
ATOM     30  H   ILE A   4      49.691 -21.219  -7.420  0.00  0.00    +0.150 HD
ATOM     31  O   GLY A   3      50.932 -23.193  -9.582  0.00  0.00    -0.273 OA
BRANCH  29  32
ATOM     32  CA  ILE A   4      51.691 -22.009  -7.152  0.00  0.00    +0.149 C 
BRANCH  32  33
ATOM     33  C   ILE A   4      51.514 -22.839  -5.883  0.00  0.00    +0.241 C 
ATOM     34  O   ILE A   4      50.581 -22.613  -5.108  0.00  0.00    -0.273 OA
ATOM     35  N   TYR A   5      52.398 -23.827  -5.710  0.00  0.00    -0.298 N 
ATOM     36  H   TYR A   5      53.155 -23.921  -6.417  0.00  0.00    +0.150 HD
BRANCH  35  37
ATOM     37  CA  TYR A   5      52.385 -24.782  -4.610  0.00  0.00    +0.141 C 
BRANCH  37  38
ATOM     38  C   TYR A   5      53.694 -24.748  -3.846  0.00  0.00    +0.227 C 
ATOM     39  O   TYR A   5      54.736 -24.468  -4.435  0.00  0.00    -0.286 OA
ENDBRANCH  37  38
BRANCH  37  40
ATOM     40  CB  TYR A   5      52.173 -26.205  -5.168  0.00  0.00    +0.054 C 
BRANCH  40  41
ATOM     41  CG  TYR A   5      50.872 -26.394  -5.917  0.00  0.00    -0.020 A 
ATOM     42  CD2 TYR A   5      49.775 -26.990  -5.307  0.00  0.00    -0.001 A 
ATOM     43  CE2 TYR A   5      48.574 -27.169  -5.992  0.00  0.00    +0.036 A 
ATOM     44  CZ  TYR A   5      48.466 -26.761  -7.309  0.00  0.00    +0.134 A 
ATOM     45  CE1 TYR A   5      49.550 -26.175  -7.942  0.00  0.00    +0.036 A 
ATOM     46  CD1 TYR A   5      50.750 -26.016  -7.252  0.00  0.00    -0.001 A 
BRANCH  44  47
ATOM     47  OH  TYR A   5      47.286 -26.944  -7.984  0.00  0.00    -0.506 OA
ATOM     48  HH  TYR A   5      47.379 -26.599  -8.907  0.00  0.00    +0.292 HD
ENDBRANCH  44  47
ENDBRANCH  40  41
ENDBRANCH  37  40
ENDBRANCH  35  37
ENDBRANCH  32  33
BRANCH  32  49
ATOM     49  CB  ILE A   4      52.439 -20.661  -6.954  0.00  0.00    +0.027 C 
ATOM     50  CG2 ILE A   4      53.740 -20.847  -6.155  0.00  0.00    +0.002 C 
BRANCH  49  51
ATOM     51  CG1 ILE A   4      52.734 -20.011  -8.329  0.00  0.00    +0.002 C 
ATOM     52  CD1 ILE A   4      53.043 -18.562  -8.301  0.00  0.00    +0.000 C 
ENDBRANCH  49  51
ENDBRANCH  32  49
ENDBRANCH  29  32
ENDBRANCH  27  28
ENDBRANCH   3  27
TORSDOF 18
REMARK  Name = ../refined-set-2016/3v7t/3v7t_pocket.pdb
REMARK  208 active torsions:
REMARK  status: ('A' for Active; 'I' for Inactive)
REMARK    1  A    between atoms: _1  and  _5
REMARK    2  A    between atoms: _5  and  _6
REMARK    3  A    between atoms: _5  and  _8
REMARK    4  A    between atoms: _8  and  _9
REMARK    5  A    between atoms: _12  and  _14
REMARK    6  A    between atoms: _14  and  _15
REMARK    7  A    between atoms: _14  and  _17
REMARK    8  A    between atoms: _20  and  _22
REMARK    9  A    between atoms: _22  and  _23
REMARK   10  A    between atoms: _22  and  _25
REMARK   11  A    between atoms: _25  and  _26
REMARK   12  A    between atoms: _32  and  _34
REMARK   13  A    between atoms: _34  and  _35
REMARK   14  A    between atoms: _34  and  _37
REMARK   15  A    between atoms: _37  and  _38
REMARK   16  A    between atoms: _38  and  _56
REMARK   17  A    between atoms: _39  and  _41
REMARK   18  A    between atoms: _41  and  _42
REMARK   19  A    between atoms: _41  and  _44
REMARK   20  A    between atoms: _44  and  _45
REMARK   21  A    between atoms: _50  and  _52
REMARK   22  A    between atoms: _52  and  _53
REMARK   23  A    between atoms: _52  and  _55
REMARK   24  A    between atoms: _55  and  _56
REMARK   25  A    between atoms: _57  and  _59
REMARK   26  A    between atoms: _59  and  _60
REMARK   27  A    between atoms: _59  and  _62
REMARK   28  A    between atoms: _62  and  _63
REMARK   29  A    between atoms: _66  and  _68
REMARK   30  A    between atoms: _68  and  _69
REMARK   31  A    between atoms: _72  and  _74
REMARK   32  A    between atoms: _74  and  _75
REMARK   33  A    between atoms: _74  and  _77
REMARK   34  A    between atoms: _77  and  _78
REMARK   35  A    between atoms: _78  and  _79
REMARK   36  A    between atoms: _84  and  _86
REMARK   37  A    between atoms: _86  and  _87
REMARK   38  A    between atoms: _86  and  _89
REMARK   39  A    between atoms: _89  and  _90
REMARK   40  A    between atoms: _93  and  _95
REMARK   41  A    between atoms: _95  and  _96
REMARK   42  A    between atoms: _95  and  _98
REMARK   43  A    between atoms: _98  and  _99
REMARK   44  A    between atoms: _102  and  _104
REMARK   45  A    between atoms: _104  and  _105
REMARK   46  A    between atoms: _104  and  _107
REMARK   47  A    between atoms: _110  and  _112
REMARK   48  A    between atoms: _112  and  _113
REMARK   49  A    between atoms: _112  and  _115
REMARK   50  A    between atoms: _115  and  _116
REMARK   51  A    between atoms: _119  and  _121
REMARK   52  A    between atoms: _121  and  _122
REMARK   53  A    between atoms: _121  and  _124
REMARK   54  A    between atoms: _124  and  _125
REMARK   55  A    between atoms: _130  and  _132
REMARK   56  A    between atoms: _132  and  _133
REMARK   57  A    between atoms: _132  and  _135
REMARK   58  A    between atoms: _135  and  _136
REMARK   59  A    between atoms: _139  and  _141
REMARK   60  A    between atoms: _141  and  _142
REMARK   61  A    between atoms: _141  and  _144
REMARK   62  A    between atoms: _144  and  _145
REMARK   63  A    between atoms: _150  and  _151
REMARK   64  A    between atoms: _153  and  _155
REMARK   65  A    between atoms: _155  and  _156
REMARK   66  A    between atoms: _159  and  _161
REMARK   67  A    between atoms: _161  and  _162
REMARK   68  A    between atoms: _161  and  _164
REMARK   69  A    between atoms: _164  and  _165
REMARK   70  A    between atoms: _168  and  _170
REMARK   71  A    between atoms: _170  and  _171
REMARK   72  A    between atoms: _170  and  _173
REMARK   73  A    between atoms: _173  and  _174
REMARK   74  A    between atoms: _177  and  _179
REMARK   75  A    between atoms: _179  and  _180
REMARK   76  A    between atoms: _183  and  _185
REMARK   77  A    between atoms: _185  and  _186
REMARK   78  A    between atoms: _188  and  _190
REMARK   79  A    between atoms: _190  and  _191
REMARK   80  A    between atoms: _190  and  _193
REMARK   81  A    between atoms: _193  and  _194
REMARK   82  A    between atoms: _199  and  _201
REMARK   83  A    between atoms: _201  and  _202
REMARK   84  A    between atoms: _201  and  _204
REMARK   85  A    between atoms: _204  and  _205
REMARK   86  A    between atoms: _205  and  _206
REMARK   87  A    between atoms: _206  and  _207
REMARK   88  A    between atoms: _216  and  _218
REMARK   89  A    between atoms: _218  and  _219
REMARK   90  A    between atoms: _218  and  _221
REMARK   91  A    between atoms: _221  and  _222
REMARK   92  A    between atoms: _225  and  _227
REMARK   93  A    between atoms: _227  and  _228
REMARK   94  A    between atoms: _227  and  _230
REMARK   95  A    between atoms: _230  and  _231
REMARK   96  A    between atoms: _233  and  _235
REMARK   97  A    between atoms: _235  and  _236
REMARK   98  A    between atoms: _235  and  _238
REMARK   99  A    between atoms: _238  and  _239
REMARK  100  A    between atoms: _239  and  _350
REMARK  101  A    between atoms: _240  and  _242
REMARK  102  A    between atoms: _242  and  _243
REMARK  103  A    between atoms: _242  and  _245
REMARK  104  A    between atoms: _245  and  _246
REMARK  105  A    between atoms: _246  and  _247
REMARK  106  A    between atoms: _252  and  _254
REMARK  107  A    between atoms: _254  and  _255
REMARK  108  A    between atoms: _257  and  _259
REMARK  109  A    between atoms: _259  and  _260
REMARK  110  A    between atoms: _259  and  _262
REMARK  111  A    between atoms: _262  and  _263
REMARK  112  A    between atoms: _266  and  _268
REMARK  113  A    between atoms: _268  and  _269
REMARK  114  A    between atoms: _268  and  _271
REMARK  115  A    between atoms: _271  and  _272
REMARK  116  A    between atoms: _274  and  _276
REMARK  117  A    between atoms: _276  and  _277
REMARK  118  A    between atoms: _279  and  _281
REMARK  119  A    between atoms: _281  and  _282
REMARK  120  A    between atoms: _284  and  _286
REMARK  121  A    between atoms: _286  and  _287
REMARK  122  A    between atoms: _286  and  _289
REMARK  123  A    between atoms: _292  and  _294
REMARK  124  A    between atoms: _294  and  _295
REMARK  125  A    between atoms: _294  and  _297
REMARK  126  A    between atoms: _300  and  _302
REMARK  127  A    between atoms: _302  and  _303
REMARK  128  A    between atoms: _302  and  _305
REMARK  129  A    between atoms: _305  and  _306
REMARK  130  A    between atoms: _308  and  _310
REMARK  131  A    between atoms: _310  and  _311
REMARK  132  A    between atoms: _310  and  _313
REMARK  133  A    between atoms: _313  and  _314
REMARK  134  A    between atoms: _324  and  _326
REMARK  135  A    between atoms: _326  and  _327
REMARK  136  A    between atoms: _329  and  _331
REMARK  137  A    between atoms: _331  and  _332
REMARK  138  A    between atoms: _331  and  _334
REMARK  139  A    between atoms: _334  and  _335
REMARK  140  A    between atoms: _335  and  _336
REMARK  141  A    between atoms: _339  and  _341
REMARK  142  A    between atoms: _341  and  _342
REMARK  143  A    between atoms: _344  and  _346
REMARK  144  A    between atoms: _346  and  _347
REMARK  145  A    between atoms: _346  and  _349
REMARK  146  A    between atoms: _349  and  _350
REMARK  147  A    between atoms: _351  and  _353
REMARK  148  A    between atoms: _353  and  _354
REMARK  149  A    between atoms: _357  and  _359
REMARK  150  A    between atoms: _359  and  _360
REMARK  151  A    between atoms: _359  and  _362
REMARK  152  A    between atoms: _362  and  _363
REMARK  153  A    between atoms: _363  and  _364
REMARK  154  A    between atoms: _369  and  _371
REMARK  155  A    between atoms: _371  and  _372
REMARK  156  A    between atoms: _371  and  _374
REMARK  157  A    between atoms: _374  and  _375
REMARK  158  A    between atoms: _375  and  _376
REMARK  159  A    between atoms: _376  and  _377
REMARK  160  A    between atoms: _387  and  _388
REMARK  161  A    between atoms: _393  and  _395
REMARK  162  A    between atoms: _395  and  _396
REMARK  163  A    between atoms: _398  and  _400
REMARK  164  A    between atoms: _400  and  _401
REMARK  165  A    between atoms: _400  and  _403
REMARK  166  A    between atoms: _403  and  _404
REMARK  167  A    between atoms: _407  and  _409
REMARK  168  A    between atoms: _409  and  _410
REMARK  169  A    between atoms: _409  and  _412
REMARK  170  A    between atoms: _412  and  _413
REMARK  171  A    between atoms: _418  and  _419
REMARK  172  A    between atoms: _423  and  _424
REMARK  173  A    between atoms: _427  and  _428
REMARK  174  A    between atoms: _433  and  _435
REMARK  175  A    between atoms: _435  and  _436
REMARK  176  A    between atoms: _435  and  _438
REMARK  177  A    between atoms: _438  and  _439
REMARK  178  A    between atoms: _442  and  _444
REMARK  179  A    between atoms: _444  and  _445
REMARK  180  A    between atoms: _444  and  _447
REMARK  181  A    between atoms: _447  and  _448
REMARK  182  A    between atoms: _448  and  _449
REMARK  183  A    between atoms: _449  and  _450
REMARK  184  A    between atoms: _450  and  _451
REMARK  185  A    between atoms: _455  and  _457
REMARK  186  A    between atoms: _457  and  _458
REMARK  187  A    between atoms: _457  and  _460
REMARK  188  A    between atoms: _460  and  _461
REMARK  189  A    between atoms: _467  and  _469
REMARK  190  A    between atoms: _469  and  _470
REMARK  191  A    between atoms: _469  and  _472
REMARK  192  A    between atoms: _472  and  _473
REMARK  193  A    between atoms: _478  and  _479
REMARK  194  A    between atoms: _481  and  _483
REMARK  195  A    between atoms: _483  and  _484
REMARK  196  A    between atoms: _483  and  _486
REMARK  197  A    between atoms: _486  and  _487
REMARK  198  A    between atoms: _490  and  _492
REMARK  199  A    between atoms: _492  and  _493
REMARK  200  A    between atoms: _496  and  _498
REMARK  201  A    between atoms: _498  and  _499
REMARK  202  A    between atoms: _498  and  _501
REMARK  203  A    between atoms: _501  and  _502
REMARK  204  A    between atoms: _502  and  _503
REMARK  205  A    between atoms: _508  and  _510
REMARK  206  A    between atoms: _510  and  _511
REMARK  207  A    between atoms: _510  and  _513
REMARK  208  A    between atoms: _513  and  _514
REMARK                            x       y       z     vdW  Elec       q    Type
REMARK                         _______ _______ _______ _____ _____    ______ ____
ROOT
ATOM      1  C   PRO A   2      52.360  -5.214 -11.666  0.00  0.00    +0.241 C 
ATOM      2  N   ASP A   3      51.054  -5.494 -11.843  0.00  0.00    -0.298 N 
ATOM      3  H   ASP A   3      50.464  -5.604 -10.994  0.00  0.00    +0.150 HD
ATOM      4  O   PRO A   2      53.150  -5.059 -12.592  0.00  0.00    -0.273 OA
ENDROOT
BRANCH   1  11
ATOM      5  C   GLY A   1      51.076  -3.682  -9.044  0.00  0.00    +0.268 C 
ATOM      6  O   GLY A   1      50.208  -3.609  -8.171  0.00  0.00    -0.268 OA
ATOM      7  N   PRO A   2      51.792  -4.818  -9.238  0.00  0.00    -0.268 N 
ATOM      8  CD  PRO A   2      51.568  -6.011  -8.397  0.00  0.00    +0.094 C 
ATOM      9  CG  PRO A   2      52.440  -7.069  -9.031  0.00  0.00    +0.024 C 
ATOM     10  CB  PRO A   2      53.538  -6.327  -9.703  0.00  0.00    +0.031 C 
ATOM     11  CA  PRO A   2      52.859  -5.060 -10.231  0.00  0.00    +0.152 C 
BRANCH   5  14
ATOM     12  N   GLY A   1      50.697  -1.246  -9.559  0.00  0.00    -0.293 NA
ATOM     13  H   GLY A   1      50.289  -1.166  -8.606  0.00  0.00    +0.187 HD
ATOM     14  CA  GLY A   1      51.346  -2.492  -9.945  0.00  0.00    +0.147 C 
ENDBRANCH   5  14
ENDBRANCH   1  11
BRANCH   2  15
ATOM     15  CA  ASP A   3      50.405  -5.655 -13.150  0.00  0.00    +0.148 C 
BRANCH  15  16
ATOM     16  C   ASP A   3      50.440  -4.355 -13.947  0.00  0.00    +0.227 C 
ATOM     17  O   ASP A   3      50.202  -3.285 -13.383  0.00  0.00    -0.286 OA
ENDBRANCH  15  16
BRANCH  15  18
ATOM     18  CB  ASP A   3      48.957  -6.161 -12.989  0.00  0.00    +0.142 C 
BRANCH  18  19
ATOM     19  CG  ASP A   3      48.120  -5.377 -11.993  0.00  0.00    +0.367 C 
ATOM     20  OD2 ASP A   3      48.440  -5.421 -10.781  0.00  0.00    -0.246 OA
ATOM     21  OD1 ASP A   3      47.140  -4.729 -12.421  0.00  0.00    -0.246 OA
ENDBRANCH  18  19
ENDBRANCH  15  18
ENDBRANCH   2  15
TORSDOF 6
REMARK  Name = ../refined-set-2016/3v7t/3v7t_pocket.pdb
REMARK  208 active torsions:
REMARK  status: ('A' for Active; 'I' for Inactive)
REMARK    1  A    between atoms: _1  and  _5
REMARK    2  A    between atoms: _5  and  _6
REMARK    3  A    between atoms: _5  and  _8
REMARK    4  A    between atoms: _8  and  _9
REMARK    5  A    between atoms: _12  and  _14
REMARK    6  A    between atoms: _14  and  _15
REMARK    7  A    between atoms: _14  and  _17
REMARK    8  A    between atoms: _20  and  _22
REMARK    9  A    between atoms: _22  and  _23
REMARK   10  A    between atoms: _22  and  _25
REMARK   11  A    between atoms: _25  and  _26
REMARK   12  A    between atoms: _32  and  _34
REMARK   13  A    between atoms: _34  and  _35
REMARK   14  A    between atoms: _34  and  _37
REMARK   15  A    between atoms: _37  and  _38
REMARK   16  A    between atoms: _38  and  _56
REMARK   17  A    between atoms: _39  and  _41
REMARK   18  A    between atoms: _41  and  _42
REMARK   19  A    between atoms: _41  and  _44
REMARK   20  A    between atoms: _44  and  _45
REMARK   21  A    between atoms: _50  and  _52
REMARK   22  A    between atoms: _52  and  _53
REMARK   23  A    between atoms: _52  and  _55
REMARK   24  A    between atoms: _55  and  _56
REMARK   25  A    between atoms: _57  and  _59
REMARK   26  A    between atoms: _59  and  _60
REMARK   27  A    between atoms: _59  and  _62
REMARK   28  A    between atoms: _62  and  _63
REMARK   29  A    between atoms: _66  and  _68
REMARK   30  A    between atoms: _68  and  _69
REMARK   31  A    between atoms: _72  and  _74
REMARK   32  A    between atoms: _74  and  _75
REMARK   33  A    between atoms: _74  and  _77
REMARK   34  A    between atoms: _77  and  _78
REMARK   35  A    between atoms: _78  and  _79
REMARK   36  A    between atoms: _84  and  _86
REMARK   37  A    between atoms: _86  and  _87
REMARK   38  A    between atoms: _86  and  _89
REMARK   39  A    between atoms: _89  and  _90
REMARK   40  A    between atoms: _93  and  _95
REMARK   41  A    between atoms: _95  and  _96
REMARK   42  A    between atoms: _95  and  _98
REMARK   43  A    between atoms: _98  and  _99
REMARK   44  A    between atoms: _102  and  _104
REMARK   45  A    between atoms: _104  and  _105
REMARK   46  A    between atoms: _104  and  _107
REMARK   47  A    between atoms: _110  and  _112
REMARK   48  A    between atoms: _112  and  _113
REMARK   49  A    between atoms: _112  and  _115
REMARK   50  A    between atoms: _115  and  _116
REMARK   51  A    between atoms: _119  and  _121
REMARK   52  A    between atoms: _121  and  _122
REMARK   53  A    between atoms: _121  and  _124
REMARK   54  A    between atoms: _124  and  _125
REMARK   55  A    between atoms: _130  and  _132
REMARK   56  A    between atoms: _132  and  _133
REMARK   57  A    between atoms: _132  and  _135
REMARK   58  A    between atoms: _135  and  _136
REMARK   59  A    between atoms: _139  and  _141
REMARK   60  A    between atoms: _141  and  _142
REMARK   61  A    between atoms: _141  and  _144
REMARK   62  A    between atoms: _144  and  _145
REMARK   63  A    between atoms: _150  and  _151
REMARK   64  A    between atoms: _153  and  _155
REMARK   65  A    between atoms: _155  and  _156
REMARK   66  A    between atoms: _159  and  _161
REMARK   67  A    between atoms: _161  and  _162
REMARK   68  A    between atoms: _161  and  _164
REMARK   69  A    between atoms: _164  and  _165
REMARK   70  A    between atoms: _168  and  _170
REMARK   71  A    between atoms: _170  and  _171
REMARK   72  A    between atoms: _170  and  _173
REMARK   73  A    between atoms: _173  and  _174
REMARK   74  A    between atoms: _177  and  _179
REMARK   75  A    between atoms: _179  and  _180
REMARK   76  A    between atoms: _183  and  _185
REMARK   77  A    between atoms: _185  and  _186
REMARK   78  A    between atoms: _188  and  _190
REMARK   79  A    between atoms: _190  and  _191
REMARK   80  A    between atoms: _190  and  _193
REMARK   81  A    between atoms: _193  and  _194
REMARK   82  A    between atoms: _199  and  _201
REMARK   83  A    between atoms: _201  and  _202
REMARK   84  A    between atoms: _201  and  _204
REMARK   85  A    between atoms: _204  and  _205
REMARK   86  A    between atoms: _205  and  _206
REMARK   87  A    between atoms: _206  and  _207
REMARK   88  A    between atoms: _216  and  _218
REMARK   89  A    between atoms: _218  and  _219
REMARK   90  A    between atoms: _218  and  _221
REMARK   91  A    between atoms: _221  and  _222
REMARK   92  A    between atoms: _225  and  _227
REMARK   93  A    between atoms: _227  and  _228
REMARK   94  A    between atoms: _227  and  _230
REMARK   95  A    between atoms: _230  and  _231
REMARK   96  A    between atoms: _233  and  _235
REMARK   97  A    between atoms: _235  and  _236
REMARK   98  A    between atoms: _235  and  _238
REMARK   99  A    between atoms: _238  and  _239
REMARK  100  A    between atoms: _239  and  _350
REMARK  101  A    between atoms: _240  and  _242
REMARK  102  A    between atoms: _242  and  _243
REMARK  103  A    between atoms: _242  and  _245
REMARK  104  A    between atoms: _245  and  _246
REMARK  105  A    between atoms: _246  and  _247
REMARK  106  A    between atoms: _252  and  _254
REMARK  107  A    between atoms: _254  and  _255
REMARK  108  A    between atoms: _257  and  _259
REMARK  109  A    between atoms: _259  and  _260
REMARK  110  A    between atoms: _259  and  _262
REMARK  111  A    between atoms: _262  and  _263
REMARK  112  A    between atoms: _266  and  _268
REMARK  113  A    between atoms: _268  and  _269
REMARK  114  A    between atoms: _268  and  _271
REMARK  115  A    between atoms: _271  and  _272
REMARK  116  A    between atoms: _274  and  _276
REMARK  117  A    between atoms: _276  and  _277
REMARK  118  A    between atoms: _279  and  _281
REMARK  119  A    between atoms: _281  and  _282
REMARK  120  A    between atoms: _284  and  _286
REMARK  121  A    between atoms: _286  and  _287
REMARK  122  A    between atoms: _286  and  _289
REMARK  123  A    between atoms: _292  and  _294
REMARK  124  A    between atoms: _294  and  _295
REMARK  125  A    between atoms: _294  and  _297
REMARK  126  A    between atoms: _300  and  _302
REMARK  127  A    between atoms: _302  and  _303
REMARK  128  A    between atoms: _302  and  _305
REMARK  129  A    between atoms: _305  and  _306
REMARK  130  A    between atoms: _308  and  _310
REMARK  131  A    between atoms: _310  and  _311
REMARK  132  A    between atoms: _310  and  _313
REMARK  133  A    between atoms: _313  and  _314
REMARK  134  A    between atoms: _324  and  _326
REMARK  135  A    between atoms: _326  and  _327
REMARK  136  A    between atoms: _329  and  _331
REMARK  137  A    between atoms: _331  and  _332
REMARK  138  A    between atoms: _331  and  _334
REMARK  139  A    between atoms: _334  and  _335
REMARK  140  A    between atoms: _335  and  _336
REMARK  141  A    between atoms: _339  and  _341
REMARK  142  A    between atoms: _341  and  _342
REMARK  143  A    between atoms: _344  and  _346
REMARK  144  A    between atoms: _346  and  _347
REMARK  145  A    between atoms: _346  and  _349
REMARK  146  A    between atoms: _349  and  _350
REMARK  147  A    between atoms: _351  and  _353
REMARK  148  A    between atoms: _353  and  _354
REMARK  149  A    between atoms: _357  and  _359
REMARK  150  A    between atoms: _359  and  _360
REMARK  151  A    between atoms: _359  and  _362
REMARK  152  A    between atoms: _362  and  _363
REMARK  153  A    between atoms: _363  and  _364
REMARK  154  A    between atoms: _369  and  _371
REMARK  155  A    between atoms: _371  and  _372
REMARK  156  A    between atoms: _371  and  _374
REMARK  157  A    between atoms: _374  and  _375
REMARK  158  A    between atoms: _375  and  _376
REMARK  159  A    between atoms: _376  and  _377
REMARK  160  A    between atoms: _387  and  _388
REMARK  161  A    between atoms: _393  and  _395
REMARK  162  A    between atoms: _395  and  _396
REMARK  163  A    between atoms: _398  and  _400
REMARK  164  A    between atoms: _400  and  _401
REMARK  165  A    between atoms: _400  and  _403
REMARK  166  A    between atoms: _403  and  _404
REMARK  167  A    between atoms: _407  and  _409
REMARK  168  A    between atoms: _409  and  _410
REMARK  169  A    between atoms: _409  and  _412
REMARK  170  A    between atoms: _412  and  _413
REMARK  171  A    between atoms: _418  and  _419
REMARK  172  A    between atoms: _423  and  _424
REMARK  173  A    between atoms: _427  and  _428
REMARK  174  A    between atoms: _433  and  _435
REMARK  175  A    between atoms: _435  and  _436
REMARK  176  A    between atoms: _435  and  _438
REMARK  177  A    between atoms: _438  and  _439
REMARK  178  A    between atoms: _442  and  _444
REMARK  179  A    between atoms: _444  and  _445
REMARK  180  A    between atoms: _444  and  _447
REMARK  181  A    between atoms: _447  and  _448
REMARK  182  A    between atoms: _448  and  _449
REMARK  183  A    between atoms: _449  and  _450
REMARK  184  A    between atoms: _450  and  _451
REMARK  185  A    between atoms: _455  and  _457
REMARK  186  A    between atoms: _457  and  _458
REMARK  187  A    between atoms: _457  and  _460
REMARK  188  A    between atoms: _460  and  _461
REMARK  189  A    between atoms: _467  and  _469
REMARK  190  A    between atoms: _469  and  _470
REMARK  191  A    between atoms: _469  and  _472
REMARK  192  A    between atoms: _472  and  _473
REMARK  193  A    between atoms: _478  and  _479
REMARK  194  A    between atoms: _481  and  _483
REMARK  195  A    between atoms: _483  and  _484
REMARK  196  A    between atoms: _483  and  _486
REMARK  197  A    between atoms: _486  and  _487
REMARK  198  A    between atoms: _490  and  _492
REMARK  199  A    between atoms: _492  and  _493
REMARK  200  A    between atoms: _496  and  _498
REMARK  201  A    between atoms: _498  and  _499
REMARK  202  A    between atoms: _498  and  _501
REMARK  203  A    between atoms: _501  and  _502
REMARK  204  A    between atoms: _502  and  _503
REMARK  205  A    between atoms: _508  and  _510
REMARK  206  A    between atoms: _510  and  _511
REMARK  207  A    between atoms: _510  and  _513
REMARK  208  A    between atoms: _513  and  _514
REMARK                            x       y       z     vdW  Elec       q    Type
REMARK                         _______ _______ _______ _____ _____    ______ ____
ROOT
ATOM      1  CG  LYS A   1      47.227   0.004 -13.766  0.00  0.00    -0.000 C 
ENDROOT
BRANCH   1   2
ATOM      2  CB  LYS A   1      48.174   0.428 -14.885  0.00  0.00    +0.025 C 
BRANCH   2   3
ATOM      3  CA  LYS A   1      48.212  -0.545 -16.079  0.00  0.00    +0.133 C 
BRANCH   3   4
ATOM      4  N   LYS A   1      49.431  -1.346 -16.025  0.00  0.00    -0.239 NA
ATOM      5  H   LYS A   1      50.309  -0.872 -15.732  0.00  0.00    +0.142 HD
ENDBRANCH   3   4
BRANCH   3   6
ATOM      6  C   LYS A   1      48.056   0.227 -17.387  0.00  0.00    +0.224 C 
ATOM      7  O   LYS A   1      49.046   0.508 -18.067  0.00  0.00    -0.287 OA
ENDBRANCH   3   6
ENDBRANCH   2   3
ENDBRANCH   1   2
BRANCH   1   8
ATOM      8  CD  LYS A   1      47.893  -0.897 -12.736  0.00  0.00    -0.024 C 
BRANCH   8   9
ATOM      9  CE  LYS A   1      46.909  -1.369 -11.697  0.00  0.00    -0.086 C 
BRANCH   9  10
ATOM     10  NZ  LYS A   1      47.528  -2.336 -10.756  0.00  0.00    +0.380 N 
ATOM     11  HZ1 LYS A   1      46.821  -2.638 -10.056  0.00  0.00    -0.089 HD
ATOM     12  HZ2 LYS A   1      48.327  -1.881 -10.269  0.00  0.00    -0.089 HD
ATOM     13  HZ3 LYS A   1      47.869  -3.164 -11.286  0.00  0.00    -0.089 HD
ENDBRANCH   9  10
ENDBRANCH   8   9
ENDBRANCH   1   8
TORSDOF 7
REMARK  Name = ../refined-set-2016/3v7t/3v7t_pocket.pdb
REMARK  208 active torsions:
REMARK  status: ('A' for Active; 'I' for Inactive)
REMARK    1  A    between atoms: _1  and  _5
REMARK    2  A    between atoms: _5  and  _6
REMARK    3  A    between atoms: _5  and  _8
REMARK    4  A    between atoms: _8  and  _9
REMARK    5  A    between atoms: _12  and  _14
REMARK    6  A    between atoms: _14  and  _15
REMARK    7  A    between atoms: _14  and  _17
REMARK    8  A    between atoms: _20  and  _22
REMARK    9  A    between atoms: _22  and  _23
REMARK   10  A    between atoms: _22  and  _25
REMARK   11  A    between atoms: _25  and  _26
REMARK   12  A    between atoms: _32  and  _34
REMARK   13  A    between atoms: _34  and  _35
REMARK   14  A    between atoms: _34  and  _37
REMARK   15  A    between atoms: _37  and  _38
REMARK   16  A    between atoms: _38  and  _56
REMARK   17  A    between atoms: _39  and  _41
REMARK   18  A    between atoms: _41  and  _42
REMARK   19  A    between atoms: _41  and  _44
REMARK   20  A    between atoms: _44  and  _45
REMARK   21  A    between atoms: _50  and  _52
REMARK   22  A    between atoms: _52  and  _53
REMARK   23  A    between atoms: _52  and  _55
REMARK   24  A    between atoms: _55  and  _56
REMARK   25  A    between atoms: _57  and  _59
REMARK   26  A    between atoms: _59  and  _60
REMARK   27  A    between atoms: _59  and  _62
REMARK   28  A    between atoms: _62  and  _63
REMARK   29  A    between atoms: _66  and  _68
REMARK   30  A    between atoms: _68  and  _69
REMARK   31  A    between atoms: _72  and  _74
REMARK   32  A    between atoms: _74  and  _75
REMARK   33  A    between atoms: _74  and  _77
REMARK   34  A    between atoms: _77  and  _78
REMARK   35  A    between atoms: _78  and  _79
REMARK   36  A    between atoms: _84  and  _86
REMARK   37  A    between atoms: _86  and  _87
REMARK   38  A    between atoms: _86  and  _89
REMARK   39  A    between atoms: _89  and  _90
REMARK   40  A    between atoms: _93  and  _95
REMARK   41  A    between atoms: _95  and  _96
REMARK   42  A    between atoms: _95  and  _98
REMARK   43  A    between atoms: _98  and  _99
REMARK   44  A    between atoms: _102  and  _104
REMARK   45  A    between atoms: _104  and  _105
REMARK   46  A    between atoms: _104  and  _107
REMARK   47  A    between atoms: _110  and  _112
REMARK   48  A    between atoms: _112  and  _113
REMARK   49  A    between atoms: _112  and  _115
REMARK   50  A    between atoms: _115  and  _116
REMARK   51  A    between atoms: _119  and  _121
REMARK   52  A    between atoms: _121  and  _122
REMARK   53  A    between atoms: _121  and  _124
REMARK   54  A    between atoms: _124  and  _125
REMARK   55  A    between atoms: _130  and  _132
REMARK   56  A    between atoms: _132  and  _133
REMARK   57  A    between atoms: _132  and  _135
REMARK   58  A    between atoms: _135  and  _136
REMARK   59  A    between atoms: _139  and  _141
REMARK   60  A    between atoms: _141  and  _142
REMARK   61  A    between atoms: _141  and  _144
REMARK   62  A    between atoms: _144  and  _145
REMARK   63  A    between atoms: _150  and  _151
REMARK   64  A    between atoms: _153  and  _155
REMARK   65  A    between atoms: _155  and  _156
REMARK   66  A    between atoms: _159  and  _161
REMARK   67  A    between atoms: _161  and  _162
REMARK   68  A    between atoms: _161  and  _164
REMARK   69  A    between atoms: _164  and  _165
REMARK   70  A    between atoms: _168  and  _170
REMARK   71  A    between atoms: _170  and  _171
REMARK   72  A    between atoms: _170  and  _173
REMARK   73  A    between atoms: _173  and  _174
REMARK   74  A    between atoms: _177  and  _179
REMARK   75  A    between atoms: _179  and  _180
REMARK   76  A    between atoms: _183  and  _185
REMARK   77  A    between atoms: _185  and  _186
REMARK   78  A    between atoms: _188  and  _190
REMARK   79  A    between atoms: _190  and  _191
REMARK   80  A    between atoms: _190  and  _193
REMARK   81  A    between atoms: _193  and  _194
REMARK   82  A    between atoms: _199  and  _201
REMARK   83  A    between atoms: _201  and  _202
REMARK   84  A    between atoms: _201  and  _204
REMARK   85  A    between atoms: _204  and  _205
REMARK   86  A    between atoms: _205  and  _206
REMARK   87  A    between atoms: _206  and  _207
REMARK   88  A    between atoms: _216  and  _218
REMARK   89  A    between atoms: _218  and  _219
REMARK   90  A    between atoms: _218  and  _221
REMARK   91  A    between atoms: _221  and  _222
REMARK   92  A    between atoms: _225  and  _227
REMARK   93  A    between atoms: _227  and  _228
REMARK   94  A    between atoms: _227  and  _230
REMARK   95  A    between atoms: _230  and  _231
REMARK   96  A    between atoms: _233  and  _235
REMARK   97  A    between atoms: _235  and  _236
REMARK   98  A    between atoms: _235  and  _238
REMARK   99  A    between atoms: _238  and  _239
REMARK  100  A    between atoms: _239  and  _350
REMARK  101  A    between atoms: _240  and  _242
REMARK  102  A    between atoms: _242  and  _243
REMARK  103  A    between atoms: _242  and  _245
REMARK  104  A    between atoms: _245  and  _246
REMARK  105  A    between atoms: _246  and  _247
REMARK  106  A    between atoms: _252  and  _254
REMARK  107  A    between atoms: _254  and  _255
REMARK  108  A    between atoms: _257  and  _259
REMARK  109  A    between atoms: _259  and  _260
REMARK  110  A    between atoms: _259  and  _262
REMARK  111  A    between atoms: _262  and  _263
REMARK  112  A    between atoms: _266  and  _268
REMARK  113  A    between atoms: _268  and  _269
REMARK  114  A    between atoms: _268  and  _271
REMARK  115  A    between atoms: _271  and  _272
REMARK  116  A    between atoms: _274  and  _276
REMARK  117  A    between atoms: _276  and  _277
REMARK  118  A    between atoms: _279  and  _281
REMARK  119  A    between atoms: _281  and  _282
REMARK  120  A    between atoms: _284  and  _286
REMARK  121  A    between atoms: _286  and  _287
REMARK  122  A    between atoms: _286  and  _289
REMARK  123  A    between atoms: _292  and  _294
REMARK  124  A    between atoms: _294  and  _295
REMARK  125  A    between atoms: _294  and  _297
REMARK  126  A    between atoms: _300  and  _302
REMARK  127  A    between atoms: _302  and  _303
REMARK  128  A    between atoms: _302  and  _305
REMARK  129  A    between atoms: _305  and  _306
REMARK  130  A    between atoms: _308  and  _310
REMARK  131  A    between atoms: _310  and  _311
REMARK  132  A    between atoms: _310  and  _313
REMARK  133  A    between atoms: _313  and  _314
REMARK  134  A    between atoms: _324  and  _326
REMARK  135  A    between atoms: _326  and  _327
REMARK  136  A    between atoms: _329  and  _331
REMARK  137  A    between atoms: _331  and  _332
REMARK  138  A    between atoms: _331  and  _334
REMARK  139  A    between atoms: _334  and  _335
REMARK  140  A    between atoms: _335  and  _336
REMARK  141  A    between atoms: _339  and  _341
REMARK  142  A    between atoms: _341  and  _342
REMARK  143  A    between atoms: _344  and  _346
REMARK  144  A    between atoms: _346  and  _347
REMARK  145  A    between atoms: _346  and  _349
REMARK  146  A    between atoms: _349  and  _350
REMARK  147  A    between atoms: _351  and  _353
REMARK  148  A    between atoms: _353  and  _354
REMARK  149  A    between atoms: _357  and  _359
REMARK  150  A    between atoms: _359  and  _360
REMARK  151  A    between atoms: _359  and  _362
REMARK  152  A    between atoms: _362  and  _363
REMARK  153  A    between atoms: _363  and  _364
REMARK  154  A    between atoms: _369  and  _371
REMARK  155  A    between atoms: _371  and  _372
REMARK  156  A    between atoms: _371  and  _374
REMARK  157  A    between atoms: _374  and  _375
REMARK  158  A    between atoms: _375  and  _376
REMARK  159  A    between atoms: _376  and  _377
REMARK  160  A    between atoms: _387  and  _388
REMARK  161  A    between atoms: _393  and  _395
REMARK  162  A    between atoms: _395  and  _396
REMARK  163  A    between atoms: _398  and  _400
REMARK  164  A    between atoms: _400  and  _401
REMARK  165  A    between atoms: _400  and  _403
REMARK  166  A    between atoms: _403  and  _404
REMARK  167  A    between atoms: _407  and  _409
REMARK  168  A    between atoms: _409  and  _410
REMARK  169  A    between atoms: _409  and  _412
REMARK  170  A    between atoms: _412  and  _413
REMARK  171  A    between atoms: _418  and  _419
REMARK  172  A    between atoms: _423  and  _424
REMARK  173  A    between atoms: _427  and  _428
REMARK  174  A    between atoms: _433  and  _435
REMARK  175  A    between atoms: _435  and  _436
REMARK  176  A    between atoms: _435  and  _438
REMARK  177  A    between atoms: _438  and  _439
REMARK  178  A    between atoms: _442  and  _444
REMARK  179  A    between atoms: _444  and  _445
REMARK  180  A    between atoms: _444  and  _447
REMARK  181  A    between atoms: _447  and  _448
REMARK  182  A    between atoms: _448  and  _449
REMARK  183  A    between atoms: _449  and  _450
REMARK  184  A    between atoms: _450  and  _451
REMARK  185  A    between atoms: _455  and  _457
REMARK  186  A    between atoms: _457  and  _458
REMARK  187  A    between atoms: _457  and  _460
REMARK  188  A    between atoms: _460  and  _461
REMARK  189  A    between atoms: _467  and  _469
REMARK  190  A    between atoms: _469  and  _470
REMARK  191  A    between atoms: _469  and  _472
REMARK  192  A    between atoms: _472  and  _473
REMARK  193  A    between atoms: _478  and  _479
REMARK  194  A    between atoms: _481  and  _483
REMARK  195  A    between atoms: _483  and  _484
REMARK  196  A    between atoms: _483  and  _486
REMARK  197  A    between atoms: _486  and  _487
REMARK  198  A    between atoms: _490  and  _492
REMARK  199  A    between atoms: _492  and  _493
REMARK  200  A    between atoms: _496  and  _498
REMARK  201  A    between atoms: _498  and  _499
REMARK  202  A    between atoms: _498  and  _501
REMARK  203  A    between atoms: _501  and  _502
REMARK  204  A    between atoms: _502  and  _503
REMARK  205  A    between atoms: _508  and  _510
REMARK  206  A    between atoms: _510  and  _511
REMARK  207  A    between atoms: _510  and  _513
REMARK  208  A    between atoms: _513  and  _514
REMARK                            x       y       z     vdW  Elec       q    Type
REMARK                         _______ _______ _______ _____ _____    ______ ____
ROOT
ATOM      1  CA  THR A   3      54.268  -7.230  -3.031  0.00  0.00    +0.176 C 
ENDROOT
BRANCH   1   3
ATOM      2  C   TYR A   2      54.868  -7.475  -5.448  0.00  0.00    +0.241 C 
ATOM      3  N   THR A   3      55.212  -7.446  -4.140  0.00  0.00    -0.295 N 
ATOM      4  H   THR A   3      56.214  -7.586  -3.901  0.00  0.00    +0.150 HD
ATOM      5  O   TYR A   2      53.704  -7.370  -5.840  0.00  0.00    -0.273 OA
BRANCH   2   6
ATOM      6  CA  TYR A   2      55.999  -7.601  -6.474  0.00  0.00    +0.153 C 
BRANCH   6   8
ATOM      7  C   PHE A   1      57.644  -5.884  -7.171  0.00  0.00    +0.239 C 
ATOM      8  N   TYR A   2      57.000  -6.575  -6.223  0.00  0.00    -0.297 N 
ATOM      9  H   TYR A   2      57.233  -6.363  -5.232  0.00  0.00    +0.150 HD
ATOM     10  O   PHE A   1      57.474  -6.059  -8.376  0.00  0.00    -0.274 OA
BRANCH   7  11
ATOM     11  CA  PHE A   1      58.511  -4.743  -6.669  0.00  0.00    +0.149 C 
BRANCH  11  12
ATOM     12  N   PHE A   1      59.842  -4.646  -7.260  0.00  0.00    -0.238 NA
ATOM     13  H   PHE A   1      60.001  -3.982  -8.045  0.00  0.00    +0.142 HD
ENDBRANCH  11  12
BRANCH  11  14
ATOM     14  CB  PHE A   1      57.731  -3.415  -6.759  0.00  0.00    +0.053 C 
BRANCH  14  15
ATOM     15  CG  PHE A   1      56.343  -3.536  -6.172  0.00  0.00    -0.020 A 
ATOM     16  CD2 PHE A   1      56.147  -3.497  -4.797  0.00  0.00    -0.004 A 
ATOM     17  CE2 PHE A   1      54.872  -3.653  -4.254  0.00  0.00    -0.000 A 
ATOM     18  CZ  PHE A   1      53.797  -3.894  -5.079  0.00  0.00    -0.000 A 
ATOM     19  CE1 PHE A   1      53.969  -3.935  -6.443  0.00  0.00    -0.000 A 
ATOM     20  CD1 PHE A   1      55.242  -3.771  -6.990  0.00  0.00    -0.004 A 
ENDBRANCH  14  15
ENDBRANCH  11  14
ENDBRANCH   7  11
ENDBRANCH   6   8
BRANCH   6  21
ATOM     21  CB  TYR A   2      56.591  -9.014  -6.563  0.00  0.00    +0.055 C 
BRANCH  21  22
ATOM     22  CG  TYR A   2      55.575 -10.024  -7.047  0.00  0.00    -0.020 A 
ATOM     23  CD2 TYR A   2      55.092 -11.015  -6.199  0.00  0.00    -0.001 A 
ATOM     24  CE2 TYR A   2      54.129 -11.926  -6.627  0.00  0.00    +0.036 A 
ATOM     25  CZ  TYR A   2      53.614 -11.830  -7.910  0.00  0.00    +0.134 A 
ATOM     26  CE1 TYR A   2      54.074 -10.846  -8.769  0.00  0.00    +0.036 A 
ATOM     27  CD1 TYR A   2      55.042  -9.946  -8.332  0.00  0.00    -0.001 A 
BRANCH  25  28
ATOM     28  OH  TYR A   2      52.674 -12.731  -8.342  0.00  0.00    -0.506 OA
ATOM     29  HH  TYR A   2      51.855 -12.246  -8.614  0.00  0.00    +0.292 HD
ENDBRANCH  25  28
ENDBRANCH  21  22
ENDBRANCH   6  21
ENDBRANCH   2   6
ENDBRANCH   1   3
BRANCH   1  30
ATOM     30  C   THR A   3      54.890  -6.256  -2.023  0.00  0.00    +0.243 C 
ATOM     31  N   ALA A   4      54.045  -5.546  -1.252  0.00  0.00    -0.297 N 
ATOM     32  H   ALA A   4      53.024  -5.690  -1.385  0.00  0.00    +0.150 HD
ATOM     33  O   THR A   3      56.118  -6.164  -1.939  0.00  0.00    -0.273 OA
BRANCH  31  34
ATOM     34  CA  ALA A   4      54.477  -4.582  -0.236  0.00  0.00    +0.149 C 
ATOM     35  CB  ALA A   4      53.272  -3.860   0.344  0.00  0.00    +0.031 C 
BRANCH  34  36
ATOM     36  C   ALA A   4      55.308  -5.222   0.890  0.00  0.00    +0.241 C 
ATOM     37  O   ALA A   4      56.189  -4.563   1.442  0.00  0.00    -0.273 OA
ATOM     38  N   GLN A   5      55.044  -6.505   1.207  0.00  0.00    -0.297 N 
ATOM     39  H   GLN A   5      54.296  -6.996   0.676  0.00  0.00    +0.150 HD
BRANCH  38  40
ATOM     40  CA  GLN A   5      55.749  -7.251   2.257  0.00  0.00    +0.149 C 
BRANCH  40  41
ATOM     41  C   GLN A   5      57.172  -7.620   1.860  0.00  0.00    +0.241 C 
ATOM     42  O   GLN A   5      58.048  -7.644   2.726  0.00  0.00    -0.273 OA
ATOM     43  N   ILE A   6      57.408  -7.903   0.557  0.00  0.00    -0.298 N 
ATOM     44  H   ILE A   6      56.605  -7.901  -0.104  0.00  0.00    +0.150 HD
BRANCH  43  45
ATOM     45  CA  ILE A   6      58.744  -8.213   0.032  0.00  0.00    +0.137 C 
BRANCH  45  46
ATOM     46  C   ILE A   6      59.571  -6.912   0.035  0.00  0.00    +0.227 C 
ATOM     47  O   ILE A   6      60.742  -6.923   0.414  0.00  0.00    -0.286 OA
ENDBRANCH  45  46
BRANCH  45  48
ATOM     48  CB  ILE A   6      58.693  -8.913  -1.364  0.00  0.00    +0.026 C 
ATOM     49  CG2 ILE A   6      60.108  -9.084  -1.965  0.00  0.00    +0.002 C 
BRANCH  48  50
ATOM     50  CG1 ILE A   6      57.969 -10.280  -1.275  0.00  0.00    +0.002 C 
ATOM     51  CD1 ILE A   6      57.472 -10.888  -2.614  0.00  0.00    +0.000 C 
ENDBRANCH  48  50
ENDBRANCH  45  48
ENDBRANCH  43  45
ENDBRANCH  40  41
BRANCH  40  52
ATOM     52  CB  GLN A   5      54.955  -8.487   2.702  0.00  0.00    +0.039 C 
BRANCH  52  53
ATOM     53  CG  GLN A   5      53.654  -8.148   3.433  0.00  0.00    +0.087 C 
BRANCH  53  54
ATOM     54  CD  GLN A   5      52.530  -7.715   2.512  0.00  0.00    +0.219 C 
ATOM     55  NE2 GLN A   5      51.782  -6.707   2.930  0.00  0.00    -0.329 N 
ATOM     56 HE21 GLN A   5      51.983  -6.255   3.845  0.00  0.00    +0.145 HD
ATOM     57 HE22 GLN A   5      50.993  -6.367   2.344  0.00  0.00    +0.145 HD
ATOM     58  OE1 GLN A   5      52.316  -8.273   1.430  0.00  0.00    -0.275 OA
ENDBRANCH  53  54
ENDBRANCH  52  53
ENDBRANCH  40  52
ENDBRANCH  38  40
ENDBRANCH  34  36
ENDBRANCH  31  34
ENDBRANCH   1  30
BRANCH   1  59
ATOM     59  CB  THR A   3      53.820  -8.535  -2.325  0.00  0.00    +0.137 C 
ATOM     60  CG2 THR A   3      53.278  -9.597  -3.272  0.00  0.00    +0.034 C 
BRANCH  59  61
ATOM     61  OG1 THR A   3      54.873  -9.048  -1.513  0.00  0.00    -0.382 OA
ATOM     62  HG1 THR A   3      54.571  -9.880  -1.070  0.00  0.00    +0.210 HD
ENDBRANCH  59  61
ENDBRANCH   1  59
TORSDOF 24
REMARK  Name = ../refined-set-2016/3v7t/3v7t_pocket.pdb
REMARK  208 active torsions:
REMARK  status: ('A' for Active; 'I' for Inactive)
REMARK    1  A    between atoms: _1  and  _5
REMARK    2  A    between atoms: _5  and  _6
REMARK    3  A    between atoms: _5  and  _8
REMARK    4  A    between atoms: _8  and  _9
REMARK    5  A    between atoms: _12  and  _14
REMARK    6  A    between atoms: _14  and  _15
REMARK    7  A    between atoms: _14  and  _17
REMARK    8  A    between atoms: _20  and  _22
REMARK    9  A    between atoms: _22  and  _23
REMARK   10  A    between atoms: _22  and  _25
REMARK   11  A    between atoms: _25  and  _26
REMARK   12  A    between atoms: _32  and  _34
REMARK   13  A    between atoms: _34  and  _35
REMARK   14  A    between atoms: _34  and  _37
REMARK   15  A    between atoms: _37  and  _38
REMARK   16  A    between atoms: _38  and  _56
REMARK   17  A    between atoms: _39  and  _41
REMARK   18  A    between atoms: _41  and  _42
REMARK   19  A    between atoms: _41  and  _44
REMARK   20  A    between atoms: _44  and  _45
REMARK   21  A    between atoms: _50  and  _52
REMARK   22  A    between atoms: _52  and  _53
REMARK   23  A    between atoms: _52  and  _55
REMARK   24  A    between atoms: _55  and  _56
REMARK   25  A    between atoms: _57  and  _59
REMARK   26  A    between atoms: _59  and  _60
REMARK   27  A    between atoms: _59  and  _62
REMARK   28  A    between atoms: _62  and  _63
REMARK   29  A    between atoms: _66  and  _68
REMARK   30  A    between atoms: _68  and  _69
REMARK   31  A    between atoms: _72  and  _74
REMARK   32  A    between atoms: _74  and  _75
REMARK   33  A    between atoms: _74  and  _77
REMARK   34  A    between atoms: _77  and  _78
REMARK   35  A    between atoms: _78  and  _79
REMARK   36  A    between atoms: _84  and  _86
REMARK   37  A    between atoms: _86  and  _87
REMARK   38  A    between atoms: _86  and  _89
REMARK   39  A    between atoms: _89  and  _90
REMARK   40  A    between atoms: _93  and  _95
REMARK   41  A    between atoms: _95  and  _96
REMARK   42  A    between atoms: _95  and  _98
REMARK   43  A    between atoms: _98  and  _99
REMARK   44  A    between atoms: _102  and  _104
REMARK   45  A    between atoms: _104  and  _105
REMARK   46  A    between atoms: _104  and  _107
REMARK   47  A    between atoms: _110  and  _112
REMARK   48  A    between atoms: _112  and  _113
REMARK   49  A    between atoms: _112  and  _115
REMARK   50  A    between atoms: _115  and  _116
REMARK   51  A    between atoms: _119  and  _121
REMARK   52  A    between atoms: _121  and  _122
REMARK   53  A    between atoms: _121  and  _124
REMARK   54  A    between atoms: _124  and  _125
REMARK   55  A    between atoms: _130  and  _132
REMARK   56  A    between atoms: _132  and  _133
REMARK   57  A    between atoms: _132  and  _135
REMARK   58  A    between atoms: _135  and  _136
REMARK   59  A    between atoms: _139  and  _141
REMARK   60  A    between atoms: _141  and  _142
REMARK   61  A    between atoms: _141  and  _144
REMARK   62  A    between atoms: _144  and  _145
REMARK   63  A    between atoms: _150  and  _151
REMARK   64  A    between atoms: _153  and  _155
REMARK   65  A    between atoms: _155  and  _156
REMARK   66  A    between atoms: _159  and  _161
REMARK   67  A    between atoms: _161  and  _162
REMARK   68  A    between atoms: _161  and  _164
REMARK   69  A    between atoms: _164  and  _165
REMARK   70  A    between atoms: _168  and  _170
REMARK   71  A    between atoms: _170  and  _171
REMARK   72  A    between atoms: _170  and  _173
REMARK   73  A    between atoms: _173  and  _174
REMARK   74  A    between atoms: _177  and  _179
REMARK   75  A    between atoms: _179  and  _180
REMARK   76  A    between atoms: _183  and  _185
REMARK   77  A    between atoms: _185  and  _186
REMARK   78  A    between atoms: _188  and  _190
REMARK   79  A    between atoms: _190  and  _191
REMARK   80  A    between atoms: _190  and  _193
REMARK   81  A    between atoms: _193  and  _194
REMARK   82  A    between atoms: _199  and  _201
REMARK   83  A    between atoms: _201  and  _202
REMARK   84  A    between atoms: _201  and  _204
REMARK   85  A    between atoms: _204  and  _205
REMARK   86  A    between atoms: _205  and  _206
REMARK   87  A    between atoms: _206  and  _207
REMARK   88  A    between atoms: _216  and  _218
REMARK   89  A    between atoms: _218  and  _219
REMARK   90  A    between atoms: _218  and  _221
REMARK   91  A    between atoms: _221  and  _222
REMARK   92  A    between atoms: _225  and  _227
REMARK   93  A    between atoms: _227  and  _228
REMARK   94  A    between atoms: _227  and  _230
REMARK   95  A    between atoms: _230  and  _231
REMARK   96  A    between atoms: _233  and  _235
REMARK   97  A    between atoms: _235  and  _236
REMARK   98  A    between atoms: _235  and  _238
REMARK   99  A    between atoms: _238  and  _239
REMARK  100  A    between atoms: _239  and  _350
REMARK  101  A    between atoms: _240  and  _242
REMARK  102  A    between atoms: _242  and  _243
REMARK  103  A    between atoms: _242  and  _245
REMARK  104  A    between atoms: _245  and  _246
REMARK  105  A    between atoms: _246  and  _247
REMARK  106  A    between atoms: _252  and  _254
REMARK  107  A    between atoms: _254  and  _255
REMARK  108  A    between atoms: _257  and  _259
REMARK  109  A    between atoms: _259  and  _260
REMARK  110  A    between atoms: _259  and  _262
REMARK  111  A    between atoms: _262  and  _263
REMARK  112  A    between atoms: _266  and  _268
REMARK  113  A    between atoms: _268  and  _269
REMARK  114  A    between atoms: _268  and  _271
REMARK  115  A    between atoms: _271  and  _272
REMARK  116  A    between atoms: _274  and  _276
REMARK  117  A    between atoms: _276  and  _277
REMARK  118  A    between atoms: _279  and  _281
REMARK  119  A    between atoms: _281  and  _282
REMARK  120  A    between atoms: _284  and  _286
REMARK  121  A    between atoms: _286  and  _287
REMARK  122  A    between atoms: _286  and  _289
REMARK  123  A    between atoms: _292  and  _294
REMARK  124  A    between atoms: _294  and  _295
REMARK  125  A    between atoms: _294  and  _297
REMARK  126  A    between atoms: _300  and  _302
REMARK  127  A    between atoms: _302  and  _303
REMARK  128  A    between atoms: _302  and  _305
REMARK  129  A    between atoms: _305  and  _306
REMARK  130  A    between atoms: _308  and  _310
REMARK  131  A    between atoms: _310  and  _311
REMARK  132  A    between atoms: _310  and  _313
REMARK  133  A    between atoms: _313  and  _314
REMARK  134  A    between atoms: _324  and  _326
REMARK  135  A    between atoms: _326  and  _327
REMARK  136  A    between atoms: _329  and  _331
REMARK  137  A    between atoms: _331  and  _332
REMARK  138  A    between atoms: _331  and  _334
REMARK  139  A    between atoms: _334  and  _335
REMARK  140  A    between atoms: _335  and  _336
REMARK  141  A    between atoms: _339  and  _341
REMARK  142  A    between atoms: _341  and  _342
REMARK  143  A    between atoms: _344  and  _346
REMARK  144  A    between atoms: _346  and  _347
REMARK  145  A    between atoms: _346  and  _349
REMARK  146  A    between atoms: _349  and  _350
REMARK  147  A    between atoms: _351  and  _353
REMARK  148  A    between atoms: _353  and  _354
REMARK  149  A    between atoms: _357  and  _359
REMARK  150  A    between atoms: _359  and  _360
REMARK  151  A    between atoms: _359  and  _362
REMARK  152  A    between atoms: _362  and  _363
REMARK  153  A    between atoms: _363  and  _364
REMARK  154  A    between atoms: _369  and  _371
REMARK  155  A    between atoms: _371  and  _372
REMARK  156  A    between atoms: _371  and  _374
REMARK  157  A    between atoms: _374  and  _375
REMARK  158  A    between atoms: _375  and  _376
REMARK  159  A    between atoms: _376  and  _377
REMARK  160  A    between atoms: _387  and  _388
REMARK  161  A    between atoms: _393  and  _395
REMARK  162  A    between atoms: _395  and  _396
REMARK  163  A    between atoms: _398  and  _400
REMARK  164  A    between atoms: _400  and  _401
REMARK  165  A    between atoms: _400  and  _403
REMARK  166  A    between atoms: _403  and  _404
REMARK  167  A    between atoms: _407  and  _409
REMARK  168  A    between atoms: _409  and  _410
REMARK  169  A    between atoms: _409  and  _412
REMARK  170  A    between atoms: _412  and  _413
REMARK  171  A    between atoms: _418  and  _419
REMARK  172  A    between atoms: _423  and  _424
REMARK  173  A    between atoms: _427  and  _428
REMARK  174  A    between atoms: _433  and  _435
REMARK  175  A    between atoms: _435  and  _436
REMARK  176  A    between atoms: _435  and  _438
REMARK  177  A    between atoms: _438  and  _439
REMARK  178  A    between atoms: _442  and  _444
REMARK  179  A    between atoms: _444  and  _445
REMARK  180  A    between atoms: _444  and  _447
REMARK  181  A    between atoms: _447  and  _448
REMARK  182  A    between atoms: _448  and  _449
REMARK  183  A    between atoms: _449  and  _450
REMARK  184  A    between atoms: _450  and  _451
REMARK  185  A    between atoms: _455  and  _457
REMARK  186  A    between atoms: _457  and  _458
REMARK  187  A    between atoms: _457  and  _460
REMARK  188  A    between atoms: _460  and  _461
REMARK  189  A    between atoms: _467  and  _469
REMARK  190  A    between atoms: _469  and  _470
REMARK  191  A    between atoms: _469  and  _472
REMARK  192  A    between atoms: _472  and  _473
REMARK  193  A    between atoms: _478  and  _479
REMARK  194  A    between atoms: _481  and  _483
REMARK  195  A    between atoms: _483  and  _484
REMARK  196  A    between atoms: _483  and  _486
REMARK  197  A    between atoms: _486  and  _487
REMARK  198  A    between atoms: _490  and  _492
REMARK  199  A    between atoms: _492  and  _493
REMARK  200  A    between atoms: _496  and  _498
REMARK  201  A    between atoms: _498  and  _499
REMARK  202  A    between atoms: _498  and  _501
REMARK  203  A    between atoms: _501  and  _502
REMARK  204  A    between atoms: _502  and  _503
REMARK  205  A    between atoms: _508  and  _510
REMARK  206  A    between atoms: _510  and  _511
REMARK  207  A    between atoms: _510  and  _513
REMARK  208  A    between atoms: _513  and  _514
REMARK                            x       y       z     vdW  Elec       q    Type
REMARK                         _______ _______ _______ _____ _____    ______ ____
ROOT
ATOM      1  O   HOH     1      50.044 -15.057   2.485  0.00  0.00    +0.000 OA
ENDROOT
TORSDOF 0
REMARK  Name = ../refined-set-2016/3v7t/3v7t_pocket.pdb
REMARK  208 active torsions:
REMARK  status: ('A' for Active; 'I' for Inactive)
REMARK    1  A    between atoms: _1  and  _5
REMARK    2  A    between atoms: _5  and  _6
REMARK    3  A    between atoms: _5  and  _8
REMARK    4  A    between atoms: _8  and  _9
REMARK    5  A    between atoms: _12  and  _14
REMARK    6  A    between atoms: _14  and  _15
REMARK    7  A    between atoms: _14  and  _17
REMARK    8  A    between atoms: _20  and  _22
REMARK    9  A    between atoms: _22  and  _23
REMARK   10  A    between atoms: _22  and  _25
REMARK   11  A    between atoms: _25  and  _26
REMARK   12  A    between atoms: _32  and  _34
REMARK   13  A    between atoms: _34  and  _35
REMARK   14  A    between atoms: _34  and  _37
REMARK   15  A    between atoms: _37  and  _38
REMARK   16  A    between atoms: _38  and  _56
REMARK   17  A    between atoms: _39  and  _41
REMARK   18  A    between atoms: _41  and  _42
REMARK   19  A    between atoms: _41  and  _44
REMARK   20  A    between atoms: _44  and  _45
REMARK   21  A    between atoms: _50  and  _52
REMARK   22  A    between atoms: _52  and  _53
REMARK   23  A    between atoms: _52  and  _55
REMARK   24  A    between atoms: _55  and  _56
REMARK   25  A    between atoms: _57  and  _59
REMARK   26  A    between atoms: _59  and  _60
REMARK   27  A    between atoms: _59  and  _62
REMARK   28  A    between atoms: _62  and  _63
REMARK   29  A    between atoms: _66  and  _68
REMARK   30  A    between atoms: _68  and  _69
REMARK   31  A    between atoms: _72  and  _74
REMARK   32  A    between atoms: _74  and  _75
REMARK   33  A    between atoms: _74  and  _77
REMARK   34  A    between atoms: _77  and  _78
REMARK   35  A    between atoms: _78  and  _79
REMARK   36  A    between atoms: _84  and  _86
REMARK   37  A    between atoms: _86  and  _87
REMARK   38  A    between atoms: _86  and  _89
REMARK   39  A    between atoms: _89  and  _90
REMARK   40  A    between atoms: _93  and  _95
REMARK   41  A    between atoms: _95  and  _96
REMARK   42  A    between atoms: _95  and  _98
REMARK   43  A    between atoms: _98  and  _99
REMARK   44  A    between atoms: _102  and  _104
REMARK   45  A    between atoms: _104  and  _105
REMARK   46  A    between atoms: _104  and  _107
REMARK   47  A    between atoms: _110  and  _112
REMARK   48  A    between atoms: _112  and  _113
REMARK   49  A    between atoms: _112  and  _115
REMARK   50  A    between atoms: _115  and  _116
REMARK   51  A    between atoms: _119  and  _121
REMARK   52  A    between atoms: _121  and  _122
REMARK   53  A    between atoms: _121  and  _124
REMARK   54  A    between atoms: _124  and  _125
REMARK   55  A    between atoms: _130  and  _132
REMARK   56  A    between atoms: _132  and  _133
REMARK   57  A    between atoms: _132  and  _135
REMARK   58  A    between atoms: _135  and  _136
REMARK   59  A    between atoms: _139  and  _141
REMARK   60  A    between atoms: _141  and  _142
REMARK   61  A    between atoms: _141  and  _144
REMARK   62  A    between atoms: _144  and  _145
REMARK   63  A    between atoms: _150  and  _151
REMARK   64  A    between atoms: _153  and  _155
REMARK   65  A    between atoms: _155  and  _156
REMARK   66  A    between atoms: _159  and  _161
REMARK   67  A    between atoms: _161  and  _162
REMARK   68  A    between atoms: _161  and  _164
REMARK   69  A    between atoms: _164  and  _165
REMARK   70  A    between atoms: _168  and  _170
REMARK   71  A    between atoms: _170  and  _171
REMARK   72  A    between atoms: _170  and  _173
REMARK   73  A    between atoms: _173  and  _174
REMARK   74  A    between atoms: _177  and  _179
REMARK   75  A    between atoms: _179  and  _180
REMARK   76  A    between atoms: _183  and  _185
REMARK   77  A    between atoms: _185  and  _186
REMARK   78  A    between atoms: _188  and  _190
REMARK   79  A    between atoms: _190  and  _191
REMARK   80  A    between atoms: _190  and  _193
REMARK   81  A    between atoms: _193  and  _194
REMARK   82  A    between atoms: _199  and  _201
REMARK   83  A    between atoms: _201  and  _202
REMARK   84  A    between atoms: _201  and  _204
REMARK   85  A    between atoms: _204  and  _205
REMARK   86  A    between atoms: _205  and  _206
REMARK   87  A    between atoms: _206  and  _207
REMARK   88  A    between atoms: _216  and  _218
REMARK   89  A    between atoms: _218  and  _219
REMARK   90  A    between atoms: _218  and  _221
REMARK   91  A    between atoms: _221  and  _222
REMARK   92  A    between atoms: _225  and  _227
REMARK   93  A    between atoms: _227  and  _228
REMARK   94  A    between atoms: _227  and  _230
REMARK   95  A    between atoms: _230  and  _231
REMARK   96  A    between atoms: _233  and  _235
REMARK   97  A    between atoms: _235  and  _236
REMARK   98  A    between atoms: _235  and  _238
REMARK   99  A    between atoms: _238  and  _239
REMARK  100  A    between atoms: _239  and  _350
REMARK  101  A    between atoms: _240  and  _242
REMARK  102  A    between atoms: _242  and  _243
REMARK  103  A    between atoms: _242  and  _245
REMARK  104  A    between atoms: _245  and  _246
REMARK  105  A    between atoms: _246  and  _247
REMARK  106  A    between atoms: _252  and  _254
REMARK  107  A    between atoms: _254  and  _255
REMARK  108  A    between atoms: _257  and  _259
REMARK  109  A    between atoms: _259  and  _260
REMARK  110  A    between atoms: _259  and  _262
REMARK  111  A    between atoms: _262  and  _263
REMARK  112  A    between atoms: _266  and  _268
REMARK  113  A    between atoms: _268  and  _269
REMARK  114  A    between atoms: _268  and  _271
REMARK  115  A    between atoms: _271  and  _272
REMARK  116  A    between atoms: _274  and  _276
REMARK  117  A    between atoms: _276  and  _277
REMARK  118  A    between atoms: _279  and  _281
REMARK  119  A    between atoms: _281  and  _282
REMARK  120  A    between atoms: _284  and  _286
REMARK  121  A    between atoms: _286  and  _287
REMARK  122  A    between atoms: _286  and  _289
REMARK  123  A    between atoms: _292  and  _294
REMARK  124  A    between atoms: _294  and  _295
REMARK  125  A    between atoms: _294  and  _297
REMARK  126  A    between atoms: _300  and  _302
REMARK  127  A    between atoms: _302  and  _303
REMARK  128  A    between atoms: _302  and  _305
REMARK  129  A    between atoms: _305  and  _306
REMARK  130  A    between atoms: _308  and  _310
REMARK  131  A    between atoms: _310  and  _311
REMARK  132  A    between atoms: _310  and  _313
REMARK  133  A    between atoms: _313  and  _314
REMARK  134  A    between atoms: _324  and  _326
REMARK  135  A    between atoms: _326  and  _327
REMARK  136  A    between atoms: _329  and  _331
REMARK  137  A    between atoms: _331  and  _332
REMARK  138  A    between atoms: _331  and  _334
REMARK  139  A    between atoms: _334  and  _335
REMARK  140  A    between atoms: _335  and  _336
REMARK  141  A    between atoms: _339  and  _341
REMARK  142  A    between atoms: _341  and  _342
REMARK  143  A    between atoms: _344  and  _346
REMARK  144  A    between atoms: _346  and  _347
REMARK  145  A    between atoms: _346  and  _349
REMARK  146  A    between atoms: _349  and  _350
REMARK  147  A    between atoms: _351  and  _353
REMARK  148  A    between atoms: _353  and  _354
REMARK  149  A    between atoms: _357  and  _359
REMARK  150  A    between atoms: _359  and  _360
REMARK  151  A    between atoms: _359  and  _362
REMARK  152  A    between atoms: _362  and  _363
REMARK  153  A    between atoms: _363  and  _364
REMARK  154  A    between atoms: _369  and  _371
REMARK  155  A    between atoms: _371  and  _372
REMARK  156  A    between atoms: _371  and  _374
REMARK  157  A    between atoms: _374  and  _375
REMARK  158  A    between atoms: _375  and  _376
REMARK  159  A    between atoms: _376  and  _377
REMARK  160  A    between atoms: _387  and  _388
REMARK  161  A    between atoms: _393  and  _395
REMARK  162  A    between atoms: _395  and  _396
REMARK  163  A    between atoms: _398  and  _400
REMARK  164  A    between atoms: _400  and  _401
REMARK  165  A    between atoms: _400  and  _403
REMARK  166  A    between atoms: _403  and  _404
REMARK  167  A    between atoms: _407  and  _409
REMARK  168  A    between atoms: _409  and  _410
REMARK  169  A    between atoms: _409  and  _412
REMARK  170  A    between atoms: _412  and  _413
REMARK  171  A    between atoms: _418  and  _419
REMARK  172  A    between atoms: _423  and  _424
REMARK  173  A    between atoms: _427  and  _428
REMARK  174  A    between atoms: _433  and  _435
REMARK  175  A    between atoms: _435  and  _436
REMARK  176  A    between atoms: _435  and  _438
REMARK  177  A    between atoms: _438  and  _439
REMARK  178  A    between atoms: _442  and  _444
REMARK  179  A    between atoms: _444  and  _445
REMARK  180  A    between atoms: _444  and  _447
REMARK  181  A    between atoms: _447  and  _448
REMARK  182  A    between atoms: _448  and  _449
REMARK  183  A    between atoms: _449  and  _450
REMARK  184  A    between atoms: _450  and  _451
REMARK  185  A    between atoms: _455  and  _457
REMARK  186  A    between atoms: _457  and  _458
REMARK  187  A    between atoms: _457  and  _460
REMARK  188  A    between atoms: _460  and  _461
REMARK  189  A    between atoms: _467  and  _469
REMARK  190  A    between atoms: _469  and  _470
REMARK  191  A    between atoms: _469  and  _472
REMARK  192  A    between atoms: _472  and  _473
REMARK  193  A    between atoms: _478  and  _479
REMARK  194  A    between atoms: _481  and  _483
REMARK  195  A    between atoms: _483  and  _484
REMARK  196  A    between atoms: _483  and  _486
REMARK  197  A    between atoms: _486  and  _487
REMARK  198  A    between atoms: _490  and  _492
REMARK  199  A    between atoms: _492  and  _493
REMARK  200  A    between atoms: _496  and  _498
REMARK  201  A    between atoms: _498  and  _499
REMARK  202  A    between atoms: _498  and  _501
REMARK  203  A    between atoms: _501  and  _502
REMARK  204  A    between atoms: _502  and  _503
REMARK  205  A    between atoms: _508  and  _510
REMARK  206  A    between atoms: _510  and  _511
REMARK  207  A    between atoms: _510  and  _513
REMARK  208  A    between atoms: _513  and  _514
REMARK                            x       y       z     vdW  Elec       q    Type
REMARK                         _______ _______ _______ _____ _____    ______ ____
ROOT
ATOM      1  O   HOH     1      45.364 -17.847 -12.149  0.00  0.00    +0.000 OA
ENDROOT
TORSDOF 0
REMARK  Name = ../refined-set-2016/3v7t/3v7t_pocket.pdb
REMARK  208 active torsions:
REMARK  status: ('A' for Active; 'I' for Inactive)
REMARK    1  A    between atoms: _1  and  _5
REMARK    2  A    between atoms: _5  and  _6
REMARK    3  A    between atoms: _5  and  _8
REMARK    4  A    between atoms: _8  and  _9
REMARK    5  A    between atoms: _12  and  _14
REMARK    6  A    between atoms: _14  and  _15
REMARK    7  A    between atoms: _14  and  _17
REMARK    8  A    between atoms: _20  and  _22
REMARK    9  A    between atoms: _22  and  _23
REMARK   10  A    between atoms: _22  and  _25
REMARK   11  A    between atoms: _25  and  _26
REMARK   12  A    between atoms: _32  and  _34
REMARK   13  A    between atoms: _34  and  _35
REMARK   14  A    between atoms: _34  and  _37
REMARK   15  A    between atoms: _37  and  _38
REMARK   16  A    between atoms: _38  and  _56
REMARK   17  A    between atoms: _39  and  _41
REMARK   18  A    between atoms: _41  and  _42
REMARK   19  A    between atoms: _41  and  _44
REMARK   20  A    between atoms: _44  and  _45
REMARK   21  A    between atoms: _50  and  _52
REMARK   22  A    between atoms: _52  and  _53
REMARK   23  A    between atoms: _52  and  _55
REMARK   24  A    between atoms: _55  and  _56
REMARK   25  A    between atoms: _57  and  _59
REMARK   26  A    between atoms: _59  and  _60
REMARK   27  A    between atoms: _59  and  _62
REMARK   28  A    between atoms: _62  and  _63
REMARK   29  A    between atoms: _66  and  _68
REMARK   30  A    between atoms: _68  and  _69
REMARK   31  A    between atoms: _72  and  _74
REMARK   32  A    between atoms: _74  and  _75
REMARK   33  A    between atoms: _74  and  _77
REMARK   34  A    between atoms: _77  and  _78
REMARK   35  A    between atoms: _78  and  _79
REMARK   36  A    between atoms: _84  and  _86
REMARK   37  A    between atoms: _86  and  _87
REMARK   38  A    between atoms: _86  and  _89
REMARK   39  A    between atoms: _89  and  _90
REMARK   40  A    between atoms: _93  and  _95
REMARK   41  A    between atoms: _95  and  _96
REMARK   42  A    between atoms: _95  and  _98
REMARK   43  A    between atoms: _98  and  _99
REMARK   44  A    between atoms: _102  and  _104
REMARK   45  A    between atoms: _104  and  _105
REMARK   46  A    between atoms: _104  and  _107
REMARK   47  A    between atoms: _110  and  _112
REMARK   48  A    between atoms: _112  and  _113
REMARK   49  A    between atoms: _112  and  _115
REMARK   50  A    between atoms: _115  and  _116
REMARK   51  A    between atoms: _119  and  _121
REMARK   52  A    between atoms: _121  and  _122
REMARK   53  A    between atoms: _121  and  _124
REMARK   54  A    between atoms: _124  and  _125
REMARK   55  A    between atoms: _130  and  _132
REMARK   56  A    between atoms: _132  and  _133
REMARK   57  A    between atoms: _132  and  _135
REMARK   58  A    between atoms: _135  and  _136
REMARK   59  A    between atoms: _139  and  _141
REMARK   60  A    between atoms: _141  and  _142
REMARK   61  A    between atoms: _141  and  _144
REMARK   62  A    between atoms: _144  and  _145
REMARK   63  A    between atoms: _150  and  _151
REMARK   64  A    between atoms: _153  and  _155
REMARK   65  A    between atoms: _155  and  _156
REMARK   66  A    between atoms: _159  and  _161
REMARK   67  A    between atoms: _161  and  _162
REMARK   68  A    between atoms: _161  and  _164
REMARK   69  A    between atoms: _164  and  _165
REMARK   70  A    between atoms: _168  and  _170
REMARK   71  A    between atoms: _170  and  _171
REMARK   72  A    between atoms: _170  and  _173
REMARK   73  A    between atoms: _173  and  _174
REMARK   74  A    between atoms: _177  and  _179
REMARK   75  A    between atoms: _179  and  _180
REMARK   76  A    between atoms: _183  and  _185
REMARK   77  A    between atoms: _185  and  _186
REMARK   78  A    between atoms: _188  and  _190
REMARK   79  A    between atoms: _190  and  _191
REMARK   80  A    between atoms: _190  and  _193
REMARK   81  A    between atoms: _193  and  _194
REMARK   82  A    between atoms: _199  and  _201
REMARK   83  A    between atoms: _201  and  _202
REMARK   84  A    between atoms: _201  and  _204
REMARK   85  A    between atoms: _204  and  _205
REMARK   86  A    between atoms: _205  and  _206
REMARK   87  A    between atoms: _206  and  _207
REMARK   88  A    between atoms: _216  and  _218
REMARK   89  A    between atoms: _218  and  _219
REMARK   90  A    between atoms: _218  and  _221
REMARK   91  A    between atoms: _221  and  _222
REMARK   92  A    between atoms: _225  and  _227
REMARK   93  A    between atoms: _227  and  _228
REMARK   94  A    between atoms: _227  and  _230
REMARK   95  A    between atoms: _230  and  _231
REMARK   96  A    between atoms: _233  and  _235
REMARK   97  A    between atoms: _235  and  _236
REMARK   98  A    between atoms: _235  and  _238
REMARK   99  A    between atoms: _238  and  _239
REMARK  100  A    between atoms: _239  and  _350
REMARK  101  A    between atoms: _240  and  _242
REMARK  102  A    between atoms: _242  and  _243
REMARK  103  A    between atoms: _242  and  _245
REMARK  104  A    between atoms: _245  and  _246
REMARK  105  A    between atoms: _246  and  _247
REMARK  106  A    between atoms: _252  and  _254
REMARK  107  A    between atoms: _254  and  _255
REMARK  108  A    between atoms: _257  and  _259
REMARK  109  A    between atoms: _259  and  _260
REMARK  110  A    between atoms: _259  and  _262
REMARK  111  A    between atoms: _262  and  _263
REMARK  112  A    between atoms: _266  and  _268
REMARK  113  A    between atoms: _268  and  _269
REMARK  114  A    between atoms: _268  and  _271
REMARK  115  A    between atoms: _271  and  _272
REMARK  116  A    between atoms: _274  and  _276
REMARK  117  A    between atoms: _276  and  _277
REMARK  118  A    between atoms: _279  and  _281
REMARK  119  A    between atoms: _281  and  _282
REMARK  120  A    between atoms: _284  and  _286
REMARK  121  A    between atoms: _286  and  _287
REMARK  122  A    between atoms: _286  and  _289
REMARK  123  A    between atoms: _292  and  _294
REMARK  124  A    between atoms: _294  and  _295
REMARK  125  A    between atoms: _294  and  _297
REMARK  126  A    between atoms: _300  and  _302
REMARK  127  A    between atoms: _302  and  _303
REMARK  128  A    between atoms: _302  and  _305
REMARK  129  A    between atoms: _305  and  _306
REMARK  130  A    between atoms: _308  and  _310
REMARK  131  A    between atoms: _310  and  _311
REMARK  132  A    between atoms: _310  and  _313
REMARK  133  A    between atoms: _313  and  _314
REMARK  134  A    between atoms: _324  and  _326
REMARK  135  A    between atoms: _326  and  _327
REMARK  136  A    between atoms: _329  and  _331
REMARK  137  A    between atoms: _331  and  _332
REMARK  138  A    between atoms: _331  and  _334
REMARK  139  A    between atoms: _334  and  _335
REMARK  140  A    between atoms: _335  and  _336
REMARK  141  A    between atoms: _339  and  _341
REMARK  142  A    between atoms: _341  and  _342
REMARK  143  A    between atoms: _344  and  _346
REMARK  144  A    between atoms: _346  and  _347
REMARK  145  A    between atoms: _346  and  _349
REMARK  146  A    between atoms: _349  and  _350
REMARK  147  A    between atoms: _351  and  _353
REMARK  148  A    between atoms: _353  and  _354
REMARK  149  A    between atoms: _357  and  _359
REMARK  150  A    between atoms: _359  and  _360
REMARK  151  A    between atoms: _359  and  _362
REMARK  152  A    between atoms: _362  and  _363
REMARK  153  A    between atoms: _363  and  _364
REMARK  154  A    between atoms: _369  and  _371
REMARK  155  A    between atoms: _371  and  _372
REMARK  156  A    between atoms: _371  and  _374
REMARK  157  A    between atoms: _374  and  _375
REMARK  158  A    between atoms: _375  and  _376
REMARK  159  A    between atoms: _376  and  _377
REMARK  160  A    between atoms: _387  and  _388
REMARK  161  A    between atoms: _393  and  _395
REMARK  162  A    between atoms: _395  and  _396
REMARK  163  A    between atoms: _398  and  _400
REMARK  164  A    between atoms: _400  and  _401
REMARK  165  A    between atoms: _400  and  _403
REMARK  166  A    between atoms: _403  and  _404
REMARK  167  A    between atoms: _407  and  _409
REMARK  168  A    between atoms: _409  and  _410
REMARK  169  A    between atoms: _409  and  _412
REMARK  170  A    between atoms: _412  and  _413
REMARK  171  A    between atoms: _418  and  _419
REMARK  172  A    between atoms: _423  and  _424
REMARK  173  A    between atoms: _427  and  _428
REMARK  174  A    between atoms: _433  and  _435
REMARK  175  A    between atoms: _435  and  _436
REMARK  176  A    between atoms: _435  and  _438
REMARK  177  A    between atoms: _438  and  _439
REMARK  178  A    between atoms: _442  and  _444
REMARK  179  A    between atoms: _444  and  _445
REMARK  180  A    between atoms: _444  and  _447
REMARK  181  A    between atoms: _447  and  _448
REMARK  182  A    between atoms: _448  and  _449
REMARK  183  A    between atoms: _449  and  _450
REMARK  184  A    between atoms: _450  and  _451
REMARK  185  A    between atoms: _455  and  _457
REMARK  186  A    between atoms: _457  and  _458
REMARK  187  A    between atoms: _457  and  _460
REMARK  188  A    between atoms: _460  and  _461
REMARK  189  A    between atoms: _467  and  _469
REMARK  190  A    between atoms: _469  and  _470
REMARK  191  A    between atoms: _469  and  _472
REMARK  192  A    between atoms: _472  and  _473
REMARK  193  A    between atoms: _478  and  _479
REMARK  194  A    between atoms: _481  and  _483
REMARK  195  A    between atoms: _483  and  _484
REMARK  196  A    between atoms: _483  and  _486
REMARK  197  A    between atoms: _486  and  _487
REMARK  198  A    between atoms: _490  and  _492
REMARK  199  A    between atoms: _492  and  _493
REMARK  200  A    between atoms: _496  and  _498
REMARK  201  A    between atoms: _498  and  _499
REMARK  202  A    between atoms: _498  and  _501
REMARK  203  A    between atoms: _501  and  _502
REMARK  204  A    between atoms: _502  and  _503
REMARK  205  A    between atoms: _508  and  _510
REMARK  206  A    between atoms: _510  and  _511
REMARK  207  A    between atoms: _510  and  _513
REMARK  208  A    between atoms: _513  and  _514
REMARK                            x       y       z     vdW  Elec       q    Type
REMARK                         _______ _______ _______ _____ _____    ______ ____
ROOT
ATOM      1  O   HOH     1      46.894 -25.696 -10.250  0.00  0.00    +0.000 OA
ENDROOT
TORSDOF 0
REMARK  Name = ../refined-set-2016/3v7t/3v7t_pocket.pdb
REMARK  208 active torsions:
REMARK  status: ('A' for Active; 'I' for Inactive)
REMARK    1  A    between atoms: _1  and  _5
REMARK    2  A    between atoms: _5  and  _6
REMARK    3  A    between atoms: _5  and  _8
REMARK    4  A    between atoms: _8  and  _9
REMARK    5  A    between atoms: _12  and  _14
REMARK    6  A    between atoms: _14  and  _15
REMARK    7  A    between atoms: _14  and  _17
REMARK    8  A    between atoms: _20  and  _22
REMARK    9  A    between atoms: _22  and  _23
REMARK   10  A    between atoms: _22  and  _25
REMARK   11  A    between atoms: _25  and  _26
REMARK   12  A    between atoms: _32  and  _34
REMARK   13  A    between atoms: _34  and  _35
REMARK   14  A    between atoms: _34  and  _37
REMARK   15  A    between atoms: _37  and  _38
REMARK   16  A    between atoms: _38  and  _56
REMARK   17  A    between atoms: _39  and  _41
REMARK   18  A    between atoms: _41  and  _42
REMARK   19  A    between atoms: _41  and  _44
REMARK   20  A    between atoms: _44  and  _45
REMARK   21  A    between atoms: _50  and  _52
REMARK   22  A    between atoms: _52  and  _53
REMARK   23  A    between atoms: _52  and  _55
REMARK   24  A    between atoms: _55  and  _56
REMARK   25  A    between atoms: _57  and  _59
REMARK   26  A    between atoms: _59  and  _60
REMARK   27  A    between atoms: _59  and  _62
REMARK   28  A    between atoms: _62  and  _63
REMARK   29  A    between atoms: _66  and  _68
REMARK   30  A    between atoms: _68  and  _69
REMARK   31  A    between atoms: _72  and  _74
REMARK   32  A    between atoms: _74  and  _75
REMARK   33  A    between atoms: _74  and  _77
REMARK   34  A    between atoms: _77  and  _78
REMARK   35  A    between atoms: _78  and  _79
REMARK   36  A    between atoms: _84  and  _86
REMARK   37  A    between atoms: _86  and  _87
REMARK   38  A    between atoms: _86  and  _89
REMARK   39  A    between atoms: _89  and  _90
REMARK   40  A    between atoms: _93  and  _95
REMARK   41  A    between atoms: _95  and  _96
REMARK   42  A    between atoms: _95  and  _98
REMARK   43  A    between atoms: _98  and  _99
REMARK   44  A    between atoms: _102  and  _104
REMARK   45  A    between atoms: _104  and  _105
REMARK   46  A    between atoms: _104  and  _107
REMARK   47  A    between atoms: _110  and  _112
REMARK   48  A    between atoms: _112  and  _113
REMARK   49  A    between atoms: _112  and  _115
REMARK   50  A    between atoms: _115  and  _116
REMARK   51  A    between atoms: _119  and  _121
REMARK   52  A    between atoms: _121  and  _122
REMARK   53  A    between atoms: _121  and  _124
REMARK   54  A    between atoms: _124  and  _125
REMARK   55  A    between atoms: _130  and  _132
REMARK   56  A    between atoms: _132  and  _133
REMARK   57  A    between atoms: _132  and  _135
REMARK   58  A    between atoms: _135  and  _136
REMARK   59  A    between atoms: _139  and  _141
REMARK   60  A    between atoms: _141  and  _142
REMARK   61  A    between atoms: _141  and  _144
REMARK   62  A    between atoms: _144  and  _145
REMARK   63  A    between atoms: _150  and  _151
REMARK   64  A    between atoms: _153  and  _155
REMARK   65  A    between atoms: _155  and  _156
REMARK   66  A    between atoms: _159  and  _161
REMARK   67  A    between atoms: _161  and  _162
REMARK   68  A    between atoms: _161  and  _164
REMARK   69  A    between atoms: _164  and  _165
REMARK   70  A    between atoms: _168  and  _170
REMARK   71  A    between atoms: _170  and  _171
REMARK   72  A    between atoms: _170  and  _173
REMARK   73  A    between atoms: _173  and  _174
REMARK   74  A    between atoms: _177  and  _179
REMARK   75  A    between atoms: _179  and  _180
REMARK   76  A    between atoms: _183  and  _185
REMARK   77  A    between atoms: _185  and  _186
REMARK   78  A    between atoms: _188  and  _190
REMARK   79  A    between atoms: _190  and  _191
REMARK   80  A    between atoms: _190  and  _193
REMARK   81  A    between atoms: _193  and  _194
REMARK   82  A    between atoms: _199  and  _201
REMARK   83  A    between atoms: _201  and  _202
REMARK   84  A    between atoms: _201  and  _204
REMARK   85  A    between atoms: _204  and  _205
REMARK   86  A    between atoms: _205  and  _206
REMARK   87  A    between atoms: _206  and  _207
REMARK   88  A    between atoms: _216  and  _218
REMARK   89  A    between atoms: _218  and  _219
REMARK   90  A    between atoms: _218  and  _221
REMARK   91  A    between atoms: _221  and  _222
REMARK   92  A    between atoms: _225  and  _227
REMARK   93  A    between atoms: _227  and  _228
REMARK   94  A    between atoms: _227  and  _230
REMARK   95  A    between atoms: _230  and  _231
REMARK   96  A    between atoms: _233  and  _235
REMARK   97  A    between atoms: _235  and  _236
REMARK   98  A    between atoms: _235  and  _238
REMARK   99  A    between atoms: _238  and  _239
REMARK  100  A    between atoms: _239  and  _350
REMARK  101  A    between atoms: _240  and  _242
REMARK  102  A    between atoms: _242  and  _243
REMARK  103  A    between atoms: _242  and  _245
REMARK  104  A    between atoms: _245  and  _246
REMARK  105  A    between atoms: _246  and  _247
REMARK  106  A    between atoms: _252  and  _254
REMARK  107  A    between atoms: _254  and  _255
REMARK  108  A    between atoms: _257  and  _259
REMARK  109  A    between atoms: _259  and  _260
REMARK  110  A    between atoms: _259  and  _262
REMARK  111  A    between atoms: _262  and  _263
REMARK  112  A    between atoms: _266  and  _268
REMARK  113  A    between atoms: _268  and  _269
REMARK  114  A    between atoms: _268  and  _271
REMARK  115  A    between atoms: _271  and  _272
REMARK  116  A    between atoms: _274  and  _276
REMARK  117  A    between atoms: _276  and  _277
REMARK  118  A    between atoms: _279  and  _281
REMARK  119  A    between atoms: _281  and  _282
REMARK  120  A    between atoms: _284  and  _286
REMARK  121  A    between atoms: _286  and  _287
REMARK  122  A    between atoms: _286  and  _289
REMARK  123  A    between atoms: _292  and  _294
REMARK  124  A    between atoms: _294  and  _295
REMARK  125  A    between atoms: _294  and  _297
REMARK  126  A    between atoms: _300  and  _302
REMARK  127  A    between atoms: _302  and  _303
REMARK  128  A    between atoms: _302  and  _305
REMARK  129  A    between atoms: _305  and  _306
REMARK  130  A    between atoms: _308  and  _310
REMARK  131  A    between atoms: _310  and  _311
REMARK  132  A    between atoms: _310  and  _313
REMARK  133  A    between atoms: _313  and  _314
REMARK  134  A    between atoms: _324  and  _326
REMARK  135  A    between atoms: _326  and  _327
REMARK  136  A    between atoms: _329  and  _331
REMARK  137  A    between atoms: _331  and  _332
REMARK  138  A    between atoms: _331  and  _334
REMARK  139  A    between atoms: _334  and  _335
REMARK  140  A    between atoms: _335  and  _336
REMARK  141  A    between atoms: _339  and  _341
REMARK  142  A    between atoms: _341  and  _342
REMARK  143  A    between atoms: _344  and  _346
REMARK  144  A    between atoms: _346  and  _347
REMARK  145  A    between atoms: _346  and  _349
REMARK  146  A    between atoms: _349  and  _350
REMARK  147  A    between atoms: _351  and  _353
REMARK  148  A    between atoms: _353  and  _354
REMARK  149  A    between atoms: _357  and  _359
REMARK  150  A    between atoms: _359  and  _360
REMARK  151  A    between atoms: _359  and  _362
REMARK  152  A    between atoms: _362  and  _363
REMARK  153  A    between atoms: _363  and  _364
REMARK  154  A    between atoms: _369  and  _371
REMARK  155  A    between atoms: _371  and  _372
REMARK  156  A    between atoms: _371  and  _374
REMARK  157  A    between atoms: _374  and  _375
REMARK  158  A    between atoms: _375  and  _376
REMARK  159  A    between atoms: _376  and  _377
REMARK  160  A    between atoms: _387  and  _388
REMARK  161  A    between atoms: _393  and  _395
REMARK  162  A    between atoms: _395  and  _396
REMARK  163  A    between atoms: _398  and  _400
REMARK  164  A    between atoms: _400  and  _401
REMARK  165  A    between atoms: _400  and  _403
REMARK  166  A    between atoms: _403  and  _404
REMARK  167  A    between atoms: _407  and  _409
REMARK  168  A    between atoms: _409  and  _410
REMARK  169  A    between atoms: _409  and  _412
REMARK  170  A    between atoms: _412  and  _413
REMARK  171  A    between atoms: _418  and  _419
REMARK  172  A    between atoms: _423  and  _424
REMARK  173  A    between atoms: _427  and  _428
REMARK  174  A    between atoms: _433  and  _435
REMARK  175  A    between atoms: _435  and  _436
REMARK  176  A    between atoms: _435  and  _438
REMARK  177  A    between atoms: _438  and  _439
REMARK  178  A    between atoms: _442  and  _444
REMARK  179  A    between atoms: _444  and  _445
REMARK  180  A    between atoms: _444  and  _447
REMARK  181  A    between atoms: _447  and  _448
REMARK  182  A    between atoms: _448  and  _449
REMARK  183  A    between atoms: _449  and  _450
REMARK  184  A    between atoms: _450  and  _451
REMARK  185  A    between atoms: _455  and  _457
REMARK  186  A    between atoms: _457  and  _458
REMARK  187  A    between atoms: _457  and  _460
REMARK  188  A    between atoms: _460  and  _461
REMARK  189  A    between atoms: _467  and  _469
REMARK  190  A    between atoms: _469  and  _470
REMARK  191  A    between atoms: _469  and  _472
REMARK  192  A    between atoms: _472  and  _473
REMARK  193  A    between atoms: _478  and  _479
REMARK  194  A    between atoms: _481  and  _483
REMARK  195  A    between atoms: _483  and  _484
REMARK  196  A    between atoms: _483  and  _486
REMARK  197  A    between atoms: _486  and  _487
REMARK  198  A    between atoms: _490  and  _492
REMARK  199  A    between atoms: _492  and  _493
REMARK  200  A    between atoms: _496  and  _498
REMARK  201  A    between atoms: _498  and  _499
REMARK  202  A    between atoms: _498  and  _501
REMARK  203  A    between atoms: _501  and  _502
REMARK  204  A    between atoms: _502  and  _503
REMARK  205  A    between atoms: _508  and  _510
REMARK  206  A    between atoms: _510  and  _511
REMARK  207  A    between atoms: _510  and  _513
REMARK  208  A    between atoms: _513  and  _514
REMARK                            x       y       z     vdW  Elec       q    Type
REMARK                         _______ _______ _______ _____ _____    ______ ____
ROOT
ATOM      1  O   HOH     1      46.312 -22.010 -13.631  0.00  0.00    +0.000 OA
ENDROOT
TORSDOF 0
REMARK  Name = ../refined-set-2016/3v7t/3v7t_pocket.pdb
REMARK  208 active torsions:
REMARK  status: ('A' for Active; 'I' for Inactive)
REMARK    1  A    between atoms: _1  and  _5
REMARK    2  A    between atoms: _5  and  _6
REMARK    3  A    between atoms: _5  and  _8
REMARK    4  A    between atoms: _8  and  _9
REMARK    5  A    between atoms: _12  and  _14
REMARK    6  A    between atoms: _14  and  _15
REMARK    7  A    between atoms: _14  and  _17
REMARK    8  A    between atoms: _20  and  _22
REMARK    9  A    between atoms: _22  and  _23
REMARK   10  A    between atoms: _22  and  _25
REMARK   11  A    between atoms: _25  and  _26
REMARK   12  A    between atoms: _32  and  _34
REMARK   13  A    between atoms: _34  and  _35
REMARK   14  A    between atoms: _34  and  _37
REMARK   15  A    between atoms: _37  and  _38
REMARK   16  A    between atoms: _38  and  _56
REMARK   17  A    between atoms: _39  and  _41
REMARK   18  A    between atoms: _41  and  _42
REMARK   19  A    between atoms: _41  and  _44
REMARK   20  A    between atoms: _44  and  _45
REMARK   21  A    between atoms: _50  and  _52
REMARK   22  A    between atoms: _52  and  _53
REMARK   23  A    between atoms: _52  and  _55
REMARK   24  A    between atoms: _55  and  _56
REMARK   25  A    between atoms: _57  and  _59
REMARK   26  A    between atoms: _59  and  _60
REMARK   27  A    between atoms: _59  and  _62
REMARK   28  A    between atoms: _62  and  _63
REMARK   29  A    between atoms: _66  and  _68
REMARK   30  A    between atoms: _68  and  _69
REMARK   31  A    between atoms: _72  and  _74
REMARK   32  A    between atoms: _74  and  _75
REMARK   33  A    between atoms: _74  and  _77
REMARK   34  A    between atoms: _77  and  _78
REMARK   35  A    between atoms: _78  and  _79
REMARK   36  A    between atoms: _84  and  _86
REMARK   37  A    between atoms: _86  and  _87
REMARK   38  A    between atoms: _86  and  _89
REMARK   39  A    between atoms: _89  and  _90
REMARK   40  A    between atoms: _93  and  _95
REMARK   41  A    between atoms: _95  and  _96
REMARK   42  A    between atoms: _95  and  _98
REMARK   43  A    between atoms: _98  and  _99
REMARK   44  A    between atoms: _102  and  _104
REMARK   45  A    between atoms: _104  and  _105
REMARK   46  A    between atoms: _104  and  _107
REMARK   47  A    between atoms: _110  and  _112
REMARK   48  A    between atoms: _112  and  _113
REMARK   49  A    between atoms: _112  and  _115
REMARK   50  A    between atoms: _115  and  _116
REMARK   51  A    between atoms: _119  and  _121
REMARK   52  A    between atoms: _121  and  _122
REMARK   53  A    between atoms: _121  and  _124
REMARK   54  A    between atoms: _124  and  _125
REMARK   55  A    between atoms: _130  and  _132
REMARK   56  A    between atoms: _132  and  _133
REMARK   57  A    between atoms: _132  and  _135
REMARK   58  A    between atoms: _135  and  _136
REMARK   59  A    between atoms: _139  and  _141
REMARK   60  A    between atoms: _141  and  _142
REMARK   61  A    between atoms: _141  and  _144
REMARK   62  A    between atoms: _144  and  _145
REMARK   63  A    between atoms: _150  and  _151
REMARK   64  A    between atoms: _153  and  _155
REMARK   65  A    between atoms: _155  and  _156
REMARK   66  A    between atoms: _159  and  _161
REMARK   67  A    between atoms: _161  and  _162
REMARK   68  A    between atoms: _161  and  _164
REMARK   69  A    between atoms: _164  and  _165
REMARK   70  A    between atoms: _168  and  _170
REMARK   71  A    between atoms: _170  and  _171
REMARK   72  A    between atoms: _170  and  _173
REMARK   73  A    between atoms: _173  and  _174
REMARK   74  A    between atoms: _177  and  _179
REMARK   75  A    between atoms: _179  and  _180
REMARK   76  A    between atoms: _183  and  _185
REMARK   77  A    between atoms: _185  and  _186
REMARK   78  A    between atoms: _188  and  _190
REMARK   79  A    between atoms: _190  and  _191
REMARK   80  A    between atoms: _190  and  _193
REMARK   81  A    between atoms: _193  and  _194
REMARK   82  A    between atoms: _199  and  _201
REMARK   83  A    between atoms: _201  and  _202
REMARK   84  A    between atoms: _201  and  _204
REMARK   85  A    between atoms: _204  and  _205
REMARK   86  A    between atoms: _205  and  _206
REMARK   87  A    between atoms: _206  and  _207
REMARK   88  A    between atoms: _216  and  _218
REMARK   89  A    between atoms: _218  and  _219
REMARK   90  A    between atoms: _218  and  _221
REMARK   91  A    between atoms: _221  and  _222
REMARK   92  A    between atoms: _225  and  _227
REMARK   93  A    between atoms: _227  and  _228
REMARK   94  A    between atoms: _227  and  _230
REMARK   95  A    between atoms: _230  and  _231
REMARK   96  A    between atoms: _233  and  _235
REMARK   97  A    between atoms: _235  and  _236
REMARK   98  A    between atoms: _235  and  _238
REMARK   99  A    between atoms: _238  and  _239
REMARK  100  A    between atoms: _239  and  _350
REMARK  101  A    between atoms: _240  and  _242
REMARK  102  A    between atoms: _242  and  _243
REMARK  103  A    between atoms: _242  and  _245
REMARK  104  A    between atoms: _245  and  _246
REMARK  105  A    between atoms: _246  and  _247
REMARK  106  A    between atoms: _252  and  _254
REMARK  107  A    between atoms: _254  and  _255
REMARK  108  A    between atoms: _257  and  _259
REMARK  109  A    between atoms: _259  and  _260
REMARK  110  A    between atoms: _259  and  _262
REMARK  111  A    between atoms: _262  and  _263
REMARK  112  A    between atoms: _266  and  _268
REMARK  113  A    between atoms: _268  and  _269
REMARK  114  A    between atoms: _268  and  _271
REMARK  115  A    between atoms: _271  and  _272
REMARK  116  A    between atoms: _274  and  _276
REMARK  117  A    between atoms: _276  and  _277
REMARK  118  A    between atoms: _279  and  _281
REMARK  119  A    between atoms: _281  and  _282
REMARK  120  A    between atoms: _284  and  _286
REMARK  121  A    between atoms: _286  and  _287
REMARK  122  A    between atoms: _286  and  _289
REMARK  123  A    between atoms: _292  and  _294
REMARK  124  A    between atoms: _294  and  _295
REMARK  125  A    between atoms: _294  and  _297
REMARK  126  A    between atoms: _300  and  _302
REMARK  127  A    between atoms: _302  and  _303
REMARK  128  A    between atoms: _302  and  _305
REMARK  129  A    between atoms: _305  and  _306
REMARK  130  A    between atoms: _308  and  _310
REMARK  131  A    between atoms: _310  and  _311
REMARK  132  A    between atoms: _310  and  _313
REMARK  133  A    between atoms: _313  and  _314
REMARK  134  A    between atoms: _324  and  _326
REMARK  135  A    between atoms: _326  and  _327
REMARK  136  A    between atoms: _329  and  _331
REMARK  137  A    between atoms: _331  and  _332
REMARK  138  A    between atoms: _331  and  _334
REMARK  139  A    between atoms: _334  and  _335
REMARK  140  A    between atoms: _335  and  _336
REMARK  141  A    between atoms: _339  and  _341
REMARK  142  A    between atoms: _341  and  _342
REMARK  143  A    between atoms: _344  and  _346
REMARK  144  A    between atoms: _346  and  _347
REMARK  145  A    between atoms: _346  and  _349
REMARK  146  A    between atoms: _349  and  _350
REMARK  147  A    between atoms: _351  and  _353
REMARK  148  A    between atoms: _353  and  _354
REMARK  149  A    between atoms: _357  and  _359
REMARK  150  A    between atoms: _359  and  _360
REMARK  151  A    between atoms: _359  and  _362
REMARK  152  A    between atoms: _362  and  _363
REMARK  153  A    between atoms: _363  and  _364
REMARK  154  A    between atoms: _369  and  _371
REMARK  155  A    between atoms: _371  and  _372
REMARK  156  A    between atoms: _371  and  _374
REMARK  157  A    between atoms: _374  and  _375
REMARK  158  A    between atoms: _375  and  _376
REMARK  159  A    between atoms: _376  and  _377
REMARK  160  A    between atoms: _387  and  _388
REMARK  161  A    between atoms: _393  and  _395
REMARK  162  A    between atoms: _395  and  _396
REMARK  163  A    between atoms: _398  and  _400
REMARK  164  A    between atoms: _400  and  _401
REMARK  165  A    between atoms: _400  and  _403
REMARK  166  A    between atoms: _403  and  _404
REMARK  167  A    between atoms: _407  and  _409
REMARK  168  A    between atoms: _409  and  _410
REMARK  169  A    between atoms: _409  and  _412
REMARK  170  A    between atoms: _412  and  _413
REMARK  171  A    between atoms: _418  and  _419
REMARK  172  A    between atoms: _423  and  _424
REMARK  173  A    between atoms: _427  and  _428
REMARK  174  A    between atoms: _433  and  _435
REMARK  175  A    between atoms: _435  and  _436
REMARK  176  A    between atoms: _435  and  _438
REMARK  177  A    between atoms: _438  and  _439
REMARK  178  A    between atoms: _442  and  _444
REMARK  179  A    between atoms: _444  and  _445
REMARK  180  A    between atoms: _444  and  _447
REMARK  181  A    between atoms: _447  and  _448
REMARK  182  A    between atoms: _448  and  _449
REMARK  183  A    between atoms: _449  and  _450
REMARK  184  A    between atoms: _450  and  _451
REMARK  185  A    between atoms: _455  and  _457
REMARK  186  A    between atoms: _457  and  _458
REMARK  187  A    between atoms: _457  and  _460
REMARK  188  A    between atoms: _460  and  _461
REMARK  189  A    between atoms: _467  and  _469
REMARK  190  A    between atoms: _469  and  _470
REMARK  191  A    between atoms: _469  and  _472
REMARK  192  A    between atoms: _472  and  _473
REMARK  193  A    between atoms: _478  and  _479
REMARK  194  A    between atoms: _481  and  _483
REMARK  195  A    between atoms: _483  and  _484
REMARK  196  A    between atoms: _483  and  _486
REMARK  197  A    between atoms: _486  and  _487
REMARK  198  A    between atoms: _490  and  _492
REMARK  199  A    between atoms: _492  and  _493
REMARK  200  A    between atoms: _496  and  _498
REMARK  201  A    between atoms: _498  and  _499
REMARK  202  A    between atoms: _498  and  _501
REMARK  203  A    between atoms: _501  and  _502
REMARK  204  A    between atoms: _502  and  _503
REMARK  205  A    between atoms: _508  and  _510
REMARK  206  A    between atoms: _510  and  _511
REMARK  207  A    between atoms: _510  and  _513
REMARK  208  A    between atoms: _513  and  _514
REMARK                            x       y       z     vdW  Elec       q    Type
REMARK                         _______ _______ _______ _____ _____    ______ ____
ROOT
ATOM      1  O   HOH     1      53.389 -10.875   0.065  0.00  0.00    +0.000 OA
ENDROOT
TORSDOF 0
REMARK  Name = ../refined-set-2016/3v7t/3v7t_pocket.pdb
REMARK  208 active torsions:
REMARK  status: ('A' for Active; 'I' for Inactive)
REMARK    1  A    between atoms: _1  and  _5
REMARK    2  A    between atoms: _5  and  _6
REMARK    3  A    between atoms: _5  and  _8
REMARK    4  A    between atoms: _8  and  _9
REMARK    5  A    between atoms: _12  and  _14
REMARK    6  A    between atoms: _14  and  _15
REMARK    7  A    between atoms: _14  and  _17
REMARK    8  A    between atoms: _20  and  _22
REMARK    9  A    between atoms: _22  and  _23
REMARK   10  A    between atoms: _22  and  _25
REMARK   11  A    between atoms: _25  and  _26
REMARK   12  A    between atoms: _32  and  _34
REMARK   13  A    between atoms: _34  and  _35
REMARK   14  A    between atoms: _34  and  _37
REMARK   15  A    between atoms: _37  and  _38
REMARK   16  A    between atoms: _38  and  _56
REMARK   17  A    between atoms: _39  and  _41
REMARK   18  A    between atoms: _41  and  _42
REMARK   19  A    between atoms: _41  and  _44
REMARK   20  A    between atoms: _44  and  _45
REMARK   21  A    between atoms: _50  and  _52
REMARK   22  A    between atoms: _52  and  _53
REMARK   23  A    between atoms: _52  and  _55
REMARK   24  A    between atoms: _55  and  _56
REMARK   25  A    between atoms: _57  and  _59
REMARK   26  A    between atoms: _59  and  _60
REMARK   27  A    between atoms: _59  and  _62
REMARK   28  A    between atoms: _62  and  _63
REMARK   29  A    between atoms: _66  and  _68
REMARK   30  A    between atoms: _68  and  _69
REMARK   31  A    between atoms: _72  and  _74
REMARK   32  A    between atoms: _74  and  _75
REMARK   33  A    between atoms: _74  and  _77
REMARK   34  A    between atoms: _77  and  _78
REMARK   35  A    between atoms: _78  and  _79
REMARK   36  A    between atoms: _84  and  _86
REMARK   37  A    between atoms: _86  and  _87
REMARK   38  A    between atoms: _86  and  _89
REMARK   39  A    between atoms: _89  and  _90
REMARK   40  A    between atoms: _93  and  _95
REMARK   41  A    between atoms: _95  and  _96
REMARK   42  A    between atoms: _95  and  _98
REMARK   43  A    between atoms: _98  and  _99
REMARK   44  A    between atoms: _102  and  _104
REMARK   45  A    between atoms: _104  and  _105
REMARK   46  A    between atoms: _104  and  _107
REMARK   47  A    between atoms: _110  and  _112
REMARK   48  A    between atoms: _112  and  _113
REMARK   49  A    between atoms: _112  and  _115
REMARK   50  A    between atoms: _115  and  _116
REMARK   51  A    between atoms: _119  and  _121
REMARK   52  A    between atoms: _121  and  _122
REMARK   53  A    between atoms: _121  and  _124
REMARK   54  A    between atoms: _124  and  _125
REMARK   55  A    between atoms: _130  and  _132
REMARK   56  A    between atoms: _132  and  _133
REMARK   57  A    between atoms: _132  and  _135
REMARK   58  A    between atoms: _135  and  _136
REMARK   59  A    between atoms: _139  and  _141
REMARK   60  A    between atoms: _141  and  _142
REMARK   61  A    between atoms: _141  and  _144
REMARK   62  A    between atoms: _144  and  _145
REMARK   63  A    between atoms: _150  and  _151
REMARK   64  A    between atoms: _153  and  _155
REMARK   65  A    between atoms: _155  and  _156
REMARK   66  A    between atoms: _159  and  _161
REMARK   67  A    between atoms: _161  and  _162
REMARK   68  A    between atoms: _161  and  _164
REMARK   69  A    between atoms: _164  and  _165
REMARK   70  A    between atoms: _168  and  _170
REMARK   71  A    between atoms: _170  and  _171
REMARK   72  A    between atoms: _170  and  _173
REMARK   73  A    between atoms: _173  and  _174
REMARK   74  A    between atoms: _177  and  _179
REMARK   75  A    between atoms: _179  and  _180
REMARK   76  A    between atoms: _183  and  _185
REMARK   77  A    between atoms: _185  and  _186
REMARK   78  A    between atoms: _188  and  _190
REMARK   79  A    between atoms: _190  and  _191
REMARK   80  A    between atoms: _190  and  _193
REMARK   81  A    between atoms: _193  and  _194
REMARK   82  A    between atoms: _199  and  _201
REMARK   83  A    between atoms: _201  and  _202
REMARK   84  A    between atoms: _201  and  _204
REMARK   85  A    between atoms: _204  and  _205
REMARK   86  A    between atoms: _205  and  _206
REMARK   87  A    between atoms: _206  and  _207
REMARK   88  A    between atoms: _216  and  _218
REMARK   89  A    between atoms: _218  and  _219
REMARK   90  A    between atoms: _218  and  _221
REMARK   91  A    between atoms: _221  and  _222
REMARK   92  A    between atoms: _225  and  _227
REMARK   93  A    between atoms: _227  and  _228
REMARK   94  A    between atoms: _227  and  _230
REMARK   95  A    between atoms: _230  and  _231
REMARK   96  A    between atoms: _233  and  _235
REMARK   97  A    between atoms: _235  and  _236
REMARK   98  A    between atoms: _235  and  _238
REMARK   99  A    between atoms: _238  and  _239
REMARK  100  A    between atoms: _239  and  _350
REMARK  101  A    between atoms: _240  and  _242
REMARK  102  A    between atoms: _242  and  _243
REMARK  103  A    between atoms: _242  and  _245
REMARK  104  A    between atoms: _245  and  _246
REMARK  105  A    between atoms: _246  and  _247
REMARK  106  A    between atoms: _252  and  _254
REMARK  107  A    between atoms: _254  and  _255
REMARK  108  A    between atoms: _257  and  _259
REMARK  109  A    between atoms: _259  and  _260
REMARK  110  A    between atoms: _259  and  _262
REMARK  111  A    between atoms: _262  and  _263
REMARK  112  A    between atoms: _266  and  _268
REMARK  113  A    between atoms: _268  and  _269
REMARK  114  A    between atoms: _268  and  _271
REMARK  115  A    between atoms: _271  and  _272
REMARK  116  A    between atoms: _274  and  _276
REMARK  117  A    between atoms: _276  and  _277
REMARK  118  A    between atoms: _279  and  _281
REMARK  119  A    between atoms: _281  and  _282
REMARK  120  A    between atoms: _284  and  _286
REMARK  121  A    between atoms: _286  and  _287
REMARK  122  A    between atoms: _286  and  _289
REMARK  123  A    between atoms: _292  and  _294
REMARK  124  A    between atoms: _294  and  _295
REMARK  125  A    between atoms: _294  and  _297
REMARK  126  A    between atoms: _300  and  _302
REMARK  127  A    between atoms: _302  and  _303
REMARK  128  A    between atoms: _302  and  _305
REMARK  129  A    between atoms: _305  and  _306
REMARK  130  A    between atoms: _308  and  _310
REMARK  131  A    between atoms: _310  and  _311
REMARK  132  A    between atoms: _310  and  _313
REMARK  133  A    between atoms: _313  and  _314
REMARK  134  A    between atoms: _324  and  _326
REMARK  135  A    between atoms: _326  and  _327
REMARK  136  A    between atoms: _329  and  _331
REMARK  137  A    between atoms: _331  and  _332
REMARK  138  A    between atoms: _331  and  _334
REMARK  139  A    between atoms: _334  and  _335
REMARK  140  A    between atoms: _335  and  _336
REMARK  141  A    between atoms: _339  and  _341
REMARK  142  A    between atoms: _341  and  _342
REMARK  143  A    between atoms: _344  and  _346
REMARK  144  A    between atoms: _346  and  _347
REMARK  145  A    between atoms: _346  and  _349
REMARK  146  A    between atoms: _349  and  _350
REMARK  147  A    between atoms: _351  and  _353
REMARK  148  A    between atoms: _353  and  _354
REMARK  149  A    between atoms: _357  and  _359
REMARK  150  A    between atoms: _359  and  _360
REMARK  151  A    between atoms: _359  and  _362
REMARK  152  A    between atoms: _362  and  _363
REMARK  153  A    between atoms: _363  and  _364
REMARK  154  A    between atoms: _369  and  _371
REMARK  155  A    between atoms: _371  and  _372
REMARK  156  A    between atoms: _371  and  _374
REMARK  157  A    between atoms: _374  and  _375
REMARK  158  A    between atoms: _375  and  _376
REMARK  159  A    between atoms: _376  and  _377
REMARK  160  A    between atoms: _387  and  _388
REMARK  161  A    between atoms: _393  and  _395
REMARK  162  A    between atoms: _395  and  _396
REMARK  163  A    between atoms: _398  and  _400
REMARK  164  A    between atoms: _400  and  _401
REMARK  165  A    between atoms: _400  and  _403
REMARK  166  A    between atoms: _403  and  _404
REMARK  167  A    between atoms: _407  and  _409
REMARK  168  A    between atoms: _409  and  _410
REMARK  169  A    between atoms: _409  and  _412
REMARK  170  A    between atoms: _412  and  _413
REMARK  171  A    between atoms: _418  and  _419
REMARK  172  A    between atoms: _423  and  _424
REMARK  173  A    between atoms: _427  and  _428
REMARK  174  A    between atoms: _433  and  _435
REMARK  175  A    between atoms: _435  and  _436
REMARK  176  A    between atoms: _435  and  _438
REMARK  177  A    between atoms: _438  and  _439
REMARK  178  A    between atoms: _442  and  _444
REMARK  179  A    between atoms: _444  and  _445
REMARK  180  A    between atoms: _444  and  _447
REMARK  181  A    between atoms: _447  and  _448
REMARK  182  A    between atoms: _448  and  _449
REMARK  183  A    between atoms: _449  and  _450
REMARK  184  A    between atoms: _450  and  _451
REMARK  185  A    between atoms: _455  and  _457
REMARK  186  A    between atoms: _457  and  _458
REMARK  187  A    between atoms: _457  and  _460
REMARK  188  A    between atoms: _460  and  _461
REMARK  189  A    between atoms: _467  and  _469
REMARK  190  A    between atoms: _469  and  _470
REMARK  191  A    between atoms: _469  and  _472
REMARK  192  A    between atoms: _472  and  _473
REMARK  193  A    between atoms: _478  and  _479
REMARK  194  A    between atoms: _481  and  _483
REMARK  195  A    between atoms: _483  and  _484
REMARK  196  A    between atoms: _483  and  _486
REMARK  197  A    between atoms: _486  and  _487
REMARK  198  A    between atoms: _490  and  _492
REMARK  199  A    between atoms: _492  and  _493
REMARK  200  A    between atoms: _496  and  _498
REMARK  201  A    between atoms: _498  and  _499
REMARK  202  A    between atoms: _498  and  _501
REMARK  203  A    between atoms: _501  and  _502
REMARK  204  A    between atoms: _502  and  _503
REMARK  205  A    between atoms: _508  and  _510
REMARK  206  A    between atoms: _510  and  _511
REMARK  207  A    between atoms: _510  and  _513
REMARK  208  A    between atoms: _513  and  _514
REMARK                            x       y       z     vdW  Elec       q    Type
REMARK                         _______ _______ _______ _____ _____    ______ ____
ROOT
ATOM      1  O   HOH     1      52.720 -10.764 -12.146  0.00  0.00    +0.000 OA
ENDROOT
TORSDOF 0
REMARK  Name = ../refined-set-2016/3v7t/3v7t_pocket.pdb
REMARK  208 active torsions:
REMARK  status: ('A' for Active; 'I' for Inactive)
REMARK    1  A    between atoms: _1  and  _5
REMARK    2  A    between atoms: _5  and  _6
REMARK    3  A    between atoms: _5  and  _8
REMARK    4  A    between atoms: _8  and  _9
REMARK    5  A    between atoms: _12  and  _14
REMARK    6  A    between atoms: _14  and  _15
REMARK    7  A    between atoms: _14  and  _17
REMARK    8  A    between atoms: _20  and  _22
REMARK    9  A    between atoms: _22  and  _23
REMARK   10  A    between atoms: _22  and  _25
REMARK   11  A    between atoms: _25  and  _26
REMARK   12  A    between atoms: _32  and  _34
REMARK   13  A    between atoms: _34  and  _35
REMARK   14  A    between atoms: _34  and  _37
REMARK   15  A    between atoms: _37  and  _38
REMARK   16  A    between atoms: _38  and  _56
REMARK   17  A    between atoms: _39  and  _41
REMARK   18  A    between atoms: _41  and  _42
REMARK   19  A    between atoms: _41  and  _44
REMARK   20  A    between atoms: _44  and  _45
REMARK   21  A    between atoms: _50  and  _52
REMARK   22  A    between atoms: _52  and  _53
REMARK   23  A    between atoms: _52  and  _55
REMARK   24  A    between atoms: _55  and  _56
REMARK   25  A    between atoms: _57  and  _59
REMARK   26  A    between atoms: _59  and  _60
REMARK   27  A    between atoms: _59  and  _62
REMARK   28  A    between atoms: _62  and  _63
REMARK   29  A    between atoms: _66  and  _68
REMARK   30  A    between atoms: _68  and  _69
REMARK   31  A    between atoms: _72  and  _74
REMARK   32  A    between atoms: _74  and  _75
REMARK   33  A    between atoms: _74  and  _77
REMARK   34  A    between atoms: _77  and  _78
REMARK   35  A    between atoms: _78  and  _79
REMARK   36  A    between atoms: _84  and  _86
REMARK   37  A    between atoms: _86  and  _87
REMARK   38  A    between atoms: _86  and  _89
REMARK   39  A    between atoms: _89  and  _90
REMARK   40  A    between atoms: _93  and  _95
REMARK   41  A    between atoms: _95  and  _96
REMARK   42  A    between atoms: _95  and  _98
REMARK   43  A    between atoms: _98  and  _99
REMARK   44  A    between atoms: _102  and  _104
REMARK   45  A    between atoms: _104  and  _105
REMARK   46  A    between atoms: _104  and  _107
REMARK   47  A    between atoms: _110  and  _112
REMARK   48  A    between atoms: _112  and  _113
REMARK   49  A    between atoms: _112  and  _115
REMARK   50  A    between atoms: _115  and  _116
REMARK   51  A    between atoms: _119  and  _121
REMARK   52  A    between atoms: _121  and  _122
REMARK   53  A    between atoms: _121  and  _124
REMARK   54  A    between atoms: _124  and  _125
REMARK   55  A    between atoms: _130  and  _132
REMARK   56  A    between atoms: _132  and  _133
REMARK   57  A    between atoms: _132  and  _135
REMARK   58  A    between atoms: _135  and  _136
REMARK   59  A    between atoms: _139  and  _141
REMARK   60  A    between atoms: _141  and  _142
REMARK   61  A    between atoms: _141  and  _144
REMARK   62  A    between atoms: _144  and  _145
REMARK   63  A    between atoms: _150  and  _151
REMARK   64  A    between atoms: _153  and  _155
REMARK   65  A    between atoms: _155  and  _156
REMARK   66  A    between atoms: _159  and  _161
REMARK   67  A    between atoms: _161  and  _162
REMARK   68  A    between atoms: _161  and  _164
REMARK   69  A    between atoms: _164  and  _165
REMARK   70  A    between atoms: _168  and  _170
REMARK   71  A    between atoms: _170  and  _171
REMARK   72  A    between atoms: _170  and  _173
REMARK   73  A    between atoms: _173  and  _174
REMARK   74  A    between atoms: _177  and  _179
REMARK   75  A    between atoms: _179  and  _180
REMARK   76  A    between atoms: _183  and  _185
REMARK   77  A    between atoms: _185  and  _186
REMARK   78  A    between atoms: _188  and  _190
REMARK   79  A    between atoms: _190  and  _191
REMARK   80  A    between atoms: _190  and  _193
REMARK   81  A    between atoms: _193  and  _194
REMARK   82  A    between atoms: _199  and  _201
REMARK   83  A    between atoms: _201  and  _202
REMARK   84  A    between atoms: _201  and  _204
REMARK   85  A    between atoms: _204  and  _205
REMARK   86  A    between atoms: _205  and  _206
REMARK   87  A    between atoms: _206  and  _207
REMARK   88  A    between atoms: _216  and  _218
REMARK   89  A    between atoms: _218  and  _219
REMARK   90  A    between atoms: _218  and  _221
REMARK   91  A    between atoms: _221  and  _222
REMARK   92  A    between atoms: _225  and  _227
REMARK   93  A    between atoms: _227  and  _228
REMARK   94  A    between atoms: _227  and  _230
REMARK   95  A    between atoms: _230  and  _231
REMARK   96  A    between atoms: _233  and  _235
REMARK   97  A    between atoms: _235  and  _236
REMARK   98  A    between atoms: _235  and  _238
REMARK   99  A    between atoms: _238  and  _239
REMARK  100  A    between atoms: _239  and  _350
REMARK  101  A    between atoms: _240  and  _242
REMARK  102  A    between atoms: _242  and  _243
REMARK  103  A    between atoms: _242  and  _245
REMARK  104  A    between atoms: _245  and  _246
REMARK  105  A    between atoms: _246  and  _247
REMARK  106  A    between atoms: _252  and  _254
REMARK  107  A    between atoms: _254  and  _255
REMARK  108  A    between atoms: _257  and  _259
REMARK  109  A    between atoms: _259  and  _260
REMARK  110  A    between atoms: _259  and  _262
REMARK  111  A    between atoms: _262  and  _263
REMARK  112  A    between atoms: _266  and  _268
REMARK  113  A    between atoms: _268  and  _269
REMARK  114  A    between atoms: _268  and  _271
REMARK  115  A    between atoms: _271  and  _272
REMARK  116  A    between atoms: _274  and  _276
REMARK  117  A    between atoms: _276  and  _277
REMARK  118  A    between atoms: _279  and  _281
REMARK  119  A    between atoms: _281  and  _282
REMARK  120  A    between atoms: _284  and  _286
REMARK  121  A    between atoms: _286  and  _287
REMARK  122  A    between atoms: _286  and  _289
REMARK  123  A    between atoms: _292  and  _294
REMARK  124  A    between atoms: _294  and  _295
REMARK  125  A    between atoms: _294  and  _297
REMARK  126  A    between atoms: _300  and  _302
REMARK  127  A    between atoms: _302  and  _303
REMARK  128  A    between atoms: _302  and  _305
REMARK  129  A    between atoms: _305  and  _306
REMARK  130  A    between atoms: _308  and  _310
REMARK  131  A    between atoms: _310  and  _311
REMARK  132  A    between atoms: _310  and  _313
REMARK  133  A    between atoms: _313  and  _314
REMARK  134  A    between atoms: _324  and  _326
REMARK  135  A    between atoms: _326  and  _327
REMARK  136  A    between atoms: _329  and  _331
REMARK  137  A    between atoms: _331  and  _332
REMARK  138  A    between atoms: _331  and  _334
REMARK  139  A    between atoms: _334  and  _335
REMARK  140  A    between atoms: _335  and  _336
REMARK  141  A    between atoms: _339  and  _341
REMARK  142  A    between atoms: _341  and  _342
REMARK  143  A    between atoms: _344  and  _346
REMARK  144  A    between atoms: _346  and  _347
REMARK  145  A    between atoms: _346  and  _349
REMARK  146  A    between atoms: _349  and  _350
REMARK  147  A    between atoms: _351  and  _353
REMARK  148  A    between atoms: _353  and  _354
REMARK  149  A    between atoms: _357  and  _359
REMARK  150  A    between atoms: _359  and  _360
REMARK  151  A    between atoms: _359  and  _362
REMARK  152  A    between atoms: _362  and  _363
REMARK  153  A    between atoms: _363  and  _364
REMARK  154  A    between atoms: _369  and  _371
REMARK  155  A    between atoms: _371  and  _372
REMARK  156  A    between atoms: _371  and  _374
REMARK  157  A    between atoms: _374  and  _375
REMARK  158  A    between atoms: _375  and  _376
REMARK  159  A    between atoms: _376  and  _377
REMARK  160  A    between atoms: _387  and  _388
REMARK  161  A    between atoms: _393  and  _395
REMARK  162  A    between atoms: _395  and  _396
REMARK  163  A    between atoms: _398  and  _400
REMARK  164  A    between atoms: _400  and  _401
REMARK  165  A    between atoms: _400  and  _403
REMARK  166  A    between atoms: _403  and  _404
REMARK  167  A    between atoms: _407  and  _409
REMARK  168  A    between atoms: _409  and  _410
REMARK  169  A    between atoms: _409  and  _412
REMARK  170  A    between atoms: _412  and  _413
REMARK  171  A    between atoms: _418  and  _419
REMARK  172  A    between atoms: _423  and  _424
REMARK  173  A    between atoms: _427  and  _428
REMARK  174  A    between atoms: _433  and  _435
REMARK  175  A    between atoms: _435  and  _436
REMARK  176  A    between atoms: _435  and  _438
REMARK  177  A    between atoms: _438  and  _439
REMARK  178  A    between atoms: _442  and  _444
REMARK  179  A    between atoms: _444  and  _445
REMARK  180  A    between atoms: _444  and  _447
REMARK  181  A    between atoms: _447  and  _448
REMARK  182  A    between atoms: _448  and  _449
REMARK  183  A    between atoms: _449  and  _450
REMARK  184  A    between atoms: _450  and  _451
REMARK  185  A    between atoms: _455  and  _457
REMARK  186  A    between atoms: _457  and  _458
REMARK  187  A    between atoms: _457  and  _460
REMARK  188  A    between atoms: _460  and  _461
REMARK  189  A    between atoms: _467  and  _469
REMARK  190  A    between atoms: _469  and  _470
REMARK  191  A    between atoms: _469  and  _472
REMARK  192  A    between atoms: _472  and  _473
REMARK  193  A    between atoms: _478  and  _479
REMARK  194  A    between atoms: _481  and  _483
REMARK  195  A    between atoms: _483  and  _484
REMARK  196  A    between atoms: _483  and  _486
REMARK  197  A    between atoms: _486  and  _487
REMARK  198  A    between atoms: _490  and  _492
REMARK  199  A    between atoms: _492  and  _493
REMARK  200  A    between atoms: _496  and  _498
REMARK  201  A    between atoms: _498  and  _499
REMARK  202  A    between atoms: _498  and  _501
REMARK  203  A    between atoms: _501  and  _502
REMARK  204  A    between atoms: _502  and  _503
REMARK  205  A    between atoms: _508  and  _510
REMARK  206  A    between atoms: _510  and  _511
REMARK  207  A    between atoms: _510  and  _513
REMARK  208  A    between atoms: _513  and  _514
REMARK                            x       y       z     vdW  Elec       q    Type
REMARK                         _______ _______ _______ _____ _____    ______ ____
ROOT
ATOM      1  O   HOH     1      47.334 -17.531  -0.582  0.00  0.00    +0.000 OA
ENDROOT
TORSDOF 0
REMARK  Name = ../refined-set-2016/3v7t/3v7t_pocket.pdb
REMARK  208 active torsions:
REMARK  status: ('A' for Active; 'I' for Inactive)
REMARK    1  A    between atoms: _1  and  _5
REMARK    2  A    between atoms: _5  and  _6
REMARK    3  A    between atoms: _5  and  _8
REMARK    4  A    between atoms: _8  and  _9
REMARK    5  A    between atoms: _12  and  _14
REMARK    6  A    between atoms: _14  and  _15
REMARK    7  A    between atoms: _14  and  _17
REMARK    8  A    between atoms: _20  and  _22
REMARK    9  A    between atoms: _22  and  _23
REMARK   10  A    between atoms: _22  and  _25
REMARK   11  A    between atoms: _25  and  _26
REMARK   12  A    between atoms: _32  and  _34
REMARK   13  A    between atoms: _34  and  _35
REMARK   14  A    between atoms: _34  and  _37
REMARK   15  A    between atoms: _37  and  _38
REMARK   16  A    between atoms: _38  and  _56
REMARK   17  A    between atoms: _39  and  _41
REMARK   18  A    between atoms: _41  and  _42
REMARK   19  A    between atoms: _41  and  _44
REMARK   20  A    between atoms: _44  and  _45
REMARK   21  A    between atoms: _50  and  _52
REMARK   22  A    between atoms: _52  and  _53
REMARK   23  A    between atoms: _52  and  _55
REMARK   24  A    between atoms: _55  and  _56
REMARK   25  A    between atoms: _57  and  _59
REMARK   26  A    between atoms: _59  and  _60
REMARK   27  A    between atoms: _59  and  _62
REMARK   28  A    between atoms: _62  and  _63
REMARK   29  A    between atoms: _66  and  _68
REMARK   30  A    between atoms: _68  and  _69
REMARK   31  A    between atoms: _72  and  _74
REMARK   32  A    between atoms: _74  and  _75
REMARK   33  A    between atoms: _74  and  _77
REMARK   34  A    between atoms: _77  and  _78
REMARK   35  A    between atoms: _78  and  _79
REMARK   36  A    between atoms: _84  and  _86
REMARK   37  A    between atoms: _86  and  _87
REMARK   38  A    between atoms: _86  and  _89
REMARK   39  A    between atoms: _89  and  _90
REMARK   40  A    between atoms: _93  and  _95
REMARK   41  A    between atoms: _95  and  _96
REMARK   42  A    between atoms: _95  and  _98
REMARK   43  A    between atoms: _98  and  _99
REMARK   44  A    between atoms: _102  and  _104
REMARK   45  A    between atoms: _104  and  _105
REMARK   46  A    between atoms: _104  and  _107
REMARK   47  A    between atoms: _110  and  _112
REMARK   48  A    between atoms: _112  and  _113
REMARK   49  A    between atoms: _112  and  _115
REMARK   50  A    between atoms: _115  and  _116
REMARK   51  A    between atoms: _119  and  _121
REMARK   52  A    between atoms: _121  and  _122
REMARK   53  A    between atoms: _121  and  _124
REMARK   54  A    between atoms: _124  and  _125
REMARK   55  A    between atoms: _130  and  _132
REMARK   56  A    between atoms: _132  and  _133
REMARK   57  A    between atoms: _132  and  _135
REMARK   58  A    between atoms: _135  and  _136
REMARK   59  A    between atoms: _139  and  _141
REMARK   60  A    between atoms: _141  and  _142
REMARK   61  A    between atoms: _141  and  _144
REMARK   62  A    between atoms: _144  and  _145
REMARK   63  A    between atoms: _150  and  _151
REMARK   64  A    between atoms: _153  and  _155
REMARK   65  A    between atoms: _155  and  _156
REMARK   66  A    between atoms: _159  and  _161
REMARK   67  A    between atoms: _161  and  _162
REMARK   68  A    between atoms: _161  and  _164
REMARK   69  A    between atoms: _164  and  _165
REMARK   70  A    between atoms: _168  and  _170
REMARK   71  A    between atoms: _170  and  _171
REMARK   72  A    between atoms: _170  and  _173
REMARK   73  A    between atoms: _173  and  _174
REMARK   74  A    between atoms: _177  and  _179
REMARK   75  A    between atoms: _179  and  _180
REMARK   76  A    between atoms: _183  and  _185
REMARK   77  A    between atoms: _185  and  _186
REMARK   78  A    between atoms: _188  and  _190
REMARK   79  A    between atoms: _190  and  _191
REMARK   80  A    between atoms: _190  and  _193
REMARK   81  A    between atoms: _193  and  _194
REMARK   82  A    between atoms: _199  and  _201
REMARK   83  A    between atoms: _201  and  _202
REMARK   84  A    between atoms: _201  and  _204
REMARK   85  A    between atoms: _204  and  _205
REMARK   86  A    between atoms: _205  and  _206
REMARK   87  A    between atoms: _206  and  _207
REMARK   88  A    between atoms: _216  and  _218
REMARK   89  A    between atoms: _218  and  _219
REMARK   90  A    between atoms: _218  and  _221
REMARK   91  A    between atoms: _221  and  _222
REMARK   92  A    between atoms: _225  and  _227
REMARK   93  A    between atoms: _227  and  _228
REMARK   94  A    between atoms: _227  and  _230
REMARK   95  A    between atoms: _230  and  _231
REMARK   96  A    between atoms: _233  and  _235
REMARK   97  A    between atoms: _235  and  _236
REMARK   98  A    between atoms: _235  and  _238
REMARK   99  A    between atoms: _238  and  _239
REMARK  100  A    between atoms: _239  and  _350
REMARK  101  A    between atoms: _240  and  _242
REMARK  102  A    between atoms: _242  and  _243
REMARK  103  A    between atoms: _242  and  _245
REMARK  104  A    between atoms: _245  and  _246
REMARK  105  A    between atoms: _246  and  _247
REMARK  106  A    between atoms: _252  and  _254
REMARK  107  A    between atoms: _254  and  _255
REMARK  108  A    between atoms: _257  and  _259
REMARK  109  A    between atoms: _259  and  _260
REMARK  110  A    between atoms: _259  and  _262
REMARK  111  A    between atoms: _262  and  _263
REMARK  112  A    between atoms: _266  and  _268
REMARK  113  A    between atoms: _268  and  _269
REMARK  114  A    between atoms: _268  and  _271
REMARK  115  A    between atoms: _271  and  _272
REMARK  116  A    between atoms: _274  and  _276
REMARK  117  A    between atoms: _276  and  _277
REMARK  118  A    between atoms: _279  and  _281
REMARK  119  A    between atoms: _281  and  _282
REMARK  120  A    between atoms: _284  and  _286
REMARK  121  A    between atoms: _286  and  _287
REMARK  122  A    between atoms: _286  and  _289
REMARK  123  A    between atoms: _292  and  _294
REMARK  124  A    between atoms: _294  and  _295
REMARK  125  A    between atoms: _294  and  _297
REMARK  126  A    between atoms: _300  and  _302
REMARK  127  A    between atoms: _302  and  _303
REMARK  128  A    between atoms: _302  and  _305
REMARK  129  A    between atoms: _305  and  _306
REMARK  130  A    between atoms: _308  and  _310
REMARK  131  A    between atoms: _310  and  _311
REMARK  132  A    between atoms: _310  and  _313
REMARK  133  A    between atoms: _313  and  _314
REMARK  134  A    between atoms: _324  and  _326
REMARK  135  A    between atoms: _326  and  _327
REMARK  136  A    between atoms: _329  and  _331
REMARK  137  A    between atoms: _331  and  _332
REMARK  138  A    between atoms: _331  and  _334
REMARK  139  A    between atoms: _334  and  _335
REMARK  140  A    between atoms: _335  and  _336
REMARK  141  A    between atoms: _339  and  _341
REMARK  142  A    between atoms: _341  and  _342
REMARK  143  A    between atoms: _344  and  _346
REMARK  144  A    between atoms: _346  and  _347
REMARK  145  A    between atoms: _346  and  _349
REMARK  146  A    between atoms: _349  and  _350
REMARK  147  A    between atoms: _351  and  _353
REMARK  148  A    between atoms: _353  and  _354
REMARK  149  A    between atoms: _357  and  _359
REMARK  150  A    between atoms: _359  and  _360
REMARK  151  A    between atoms: _359  and  _362
REMARK  152  A    between atoms: _362  and  _363
REMARK  153  A    between atoms: _363  and  _364
REMARK  154  A    between atoms: _369  and  _371
REMARK  155  A    between atoms: _371  and  _372
REMARK  156  A    between atoms: _371  and  _374
REMARK  157  A    between atoms: _374  and  _375
REMARK  158  A    between atoms: _375  and  _376
REMARK  159  A    between atoms: _376  and  _377
REMARK  160  A    between atoms: _387  and  _388
REMARK  161  A    between atoms: _393  and  _395
REMARK  162  A    between atoms: _395  and  _396
REMARK  163  A    between atoms: _398  and  _400
REMARK  164  A    between atoms: _400  and  _401
REMARK  165  A    between atoms: _400  and  _403
REMARK  166  A    between atoms: _403  and  _404
REMARK  167  A    between atoms: _407  and  _409
REMARK  168  A    between atoms: _409  and  _410
REMARK  169  A    between atoms: _409  and  _412
REMARK  170  A    between atoms: _412  and  _413
REMARK  171  A    between atoms: _418  and  _419
REMARK  172  A    between atoms: _423  and  _424
REMARK  173  A    between atoms: _427  and  _428
REMARK  174  A    between atoms: _433  and  _435
REMARK  175  A    between atoms: _435  and  _436
REMARK  176  A    between atoms: _435  and  _438
REMARK  177  A    between atoms: _438  and  _439
REMARK  178  A    between atoms: _442  and  _444
REMARK  179  A    between atoms: _444  and  _445
REMARK  180  A    between atoms: _444  and  _447
REMARK  181  A    between atoms: _447  and  _448
REMARK  182  A    between atoms: _448  and  _449
REMARK  183  A    between atoms: _449  and  _450
REMARK  184  A    between atoms: _450  and  _451
REMARK  185  A    between atoms: _455  and  _457
REMARK  186  A    between atoms: _457  and  _458
REMARK  187  A    between atoms: _457  and  _460
REMARK  188  A    between atoms: _460  and  _461
REMARK  189  A    between atoms: _467  and  _469
REMARK  190  A    between atoms: _469  and  _470
REMARK  191  A    between atoms: _469  and  _472
REMARK  192  A    between atoms: _472  and  _473
REMARK  193  A    between atoms: _478  and  _479
REMARK  194  A    between atoms: _481  and  _483
REMARK  195  A    between atoms: _483  and  _484
REMARK  196  A    between atoms: _483  and  _486
REMARK  197  A    between atoms: _486  and  _487
REMARK  198  A    between atoms: _490  and  _492
REMARK  199  A    between atoms: _492  and  _493
REMARK  200  A    between atoms: _496  and  _498
REMARK  201  A    between atoms: _498  and  _499
REMARK  202  A    between atoms: _498  and  _501
REMARK  203  A    between atoms: _501  and  _502
REMARK  204  A    between atoms: _502  and  _503
REMARK  205  A    between atoms: _508  and  _510
REMARK  206  A    between atoms: _510  and  _511
REMARK  207  A    between atoms: _510  and  _513
REMARK  208  A    between atoms: _513  and  _514
REMARK                            x       y       z     vdW  Elec       q    Type
REMARK                         _______ _______ _______ _____ _____    ______ ____
ROOT
ATOM      1  O   HOH     1      48.063 -14.960  -1.078  0.00  0.00    +0.000 OA
ENDROOT
TORSDOF 0
REMARK  Name = ../refined-set-2016/3v7t/3v7t_pocket.pdb
REMARK  208 active torsions:
REMARK  status: ('A' for Active; 'I' for Inactive)
REMARK    1  A    between atoms: _1  and  _5
REMARK    2  A    between atoms: _5  and  _6
REMARK    3  A    between atoms: _5  and  _8
REMARK    4  A    between atoms: _8  and  _9
REMARK    5  A    between atoms: _12  and  _14
REMARK    6  A    between atoms: _14  and  _15
REMARK    7  A    between atoms: _14  and  _17
REMARK    8  A    between atoms: _20  and  _22
REMARK    9  A    between atoms: _22  and  _23
REMARK   10  A    between atoms: _22  and  _25
REMARK   11  A    between atoms: _25  and  _26
REMARK   12  A    between atoms: _32  and  _34
REMARK   13  A    between atoms: _34  and  _35
REMARK   14  A    between atoms: _34  and  _37
REMARK   15  A    between atoms: _37  and  _38
REMARK   16  A    between atoms: _38  and  _56
REMARK   17  A    between atoms: _39  and  _41
REMARK   18  A    between atoms: _41  and  _42
REMARK   19  A    between atoms: _41  and  _44
REMARK   20  A    between atoms: _44  and  _45
REMARK   21  A    between atoms: _50  and  _52
REMARK   22  A    between atoms: _52  and  _53
REMARK   23  A    between atoms: _52  and  _55
REMARK   24  A    between atoms: _55  and  _56
REMARK   25  A    between atoms: _57  and  _59
REMARK   26  A    between atoms: _59  and  _60
REMARK   27  A    between atoms: _59  and  _62
REMARK   28  A    between atoms: _62  and  _63
REMARK   29  A    between atoms: _66  and  _68
REMARK   30  A    between atoms: _68  and  _69
REMARK   31  A    between atoms: _72  and  _74
REMARK   32  A    between atoms: _74  and  _75
REMARK   33  A    between atoms: _74  and  _77
REMARK   34  A    between atoms: _77  and  _78
REMARK   35  A    between atoms: _78  and  _79
REMARK   36  A    between atoms: _84  and  _86
REMARK   37  A    between atoms: _86  and  _87
REMARK   38  A    between atoms: _86  and  _89
REMARK   39  A    between atoms: _89  and  _90
REMARK   40  A    between atoms: _93  and  _95
REMARK   41  A    between atoms: _95  and  _96
REMARK   42  A    between atoms: _95  and  _98
REMARK   43  A    between atoms: _98  and  _99
REMARK   44  A    between atoms: _102  and  _104
REMARK   45  A    between atoms: _104  and  _105
REMARK   46  A    between atoms: _104  and  _107
REMARK   47  A    between atoms: _110  and  _112
REMARK   48  A    between atoms: _112  and  _113
REMARK   49  A    between atoms: _112  and  _115
REMARK   50  A    between atoms: _115  and  _116
REMARK   51  A    between atoms: _119  and  _121
REMARK   52  A    between atoms: _121  and  _122
REMARK   53  A    between atoms: _121  and  _124
REMARK   54  A    between atoms: _124  and  _125
REMARK   55  A    between atoms: _130  and  _132
REMARK   56  A    between atoms: _132  and  _133
REMARK   57  A    between atoms: _132  and  _135
REMARK   58  A    between atoms: _135  and  _136
REMARK   59  A    between atoms: _139  and  _141
REMARK   60  A    between atoms: _141  and  _142
REMARK   61  A    between atoms: _141  and  _144
REMARK   62  A    between atoms: _144  and  _145
REMARK   63  A    between atoms: _150  and  _151
REMARK   64  A    between atoms: _153  and  _155
REMARK   65  A    between atoms: _155  and  _156
REMARK   66  A    between atoms: _159  and  _161
REMARK   67  A    between atoms: _161  and  _162
REMARK   68  A    between atoms: _161  and  _164
REMARK   69  A    between atoms: _164  and  _165
REMARK   70  A    between atoms: _168  and  _170
REMARK   71  A    between atoms: _170  and  _171
REMARK   72  A    between atoms: _170  and  _173
REMARK   73  A    between atoms: _173  and  _174
REMARK   74  A    between atoms: _177  and  _179
REMARK   75  A    between atoms: _179  and  _180
REMARK   76  A    between atoms: _183  and  _185
REMARK   77  A    between atoms: _185  and  _186
REMARK   78  A    between atoms: _188  and  _190
REMARK   79  A    between atoms: _190  and  _191
REMARK   80  A    between atoms: _190  and  _193
REMARK   81  A    between atoms: _193  and  _194
REMARK   82  A    between atoms: _199  and  _201
REMARK   83  A    between atoms: _201  and  _202
REMARK   84  A    between atoms: _201  and  _204
REMARK   85  A    between atoms: _204  and  _205
REMARK   86  A    between atoms: _205  and  _206
REMARK   87  A    between atoms: _206  and  _207
REMARK   88  A    between atoms: _216  and  _218
REMARK   89  A    between atoms: _218  and  _219
REMARK   90  A    between atoms: _218  and  _221
REMARK   91  A    between atoms: _221  and  _222
REMARK   92  A    between atoms: _225  and  _227
REMARK   93  A    between atoms: _227  and  _228
REMARK   94  A    between atoms: _227  and  _230
REMARK   95  A    between atoms: _230  and  _231
REMARK   96  A    between atoms: _233  and  _235
REMARK   97  A    between atoms: _235  and  _236
REMARK   98  A    between atoms: _235  and  _238
REMARK   99  A    between atoms: _238  and  _239
REMARK  100  A    between atoms: _239  and  _350
REMARK  101  A    between atoms: _240  and  _242
REMARK  102  A    between atoms: _242  and  _243
REMARK  103  A    between atoms: _242  and  _245
REMARK  104  A    between atoms: _245  and  _246
REMARK  105  A    between atoms: _246  and  _247
REMARK  106  A    between atoms: _252  and  _254
REMARK  107  A    between atoms: _254  and  _255
REMARK  108  A    between atoms: _257  and  _259
REMARK  109  A    between atoms: _259  and  _260
REMARK  110  A    between atoms: _259  and  _262
REMARK  111  A    between atoms: _262  and  _263
REMARK  112  A    between atoms: _266  and  _268
REMARK  113  A    between atoms: _268  and  _269
REMARK  114  A    between atoms: _268  and  _271
REMARK  115  A    between atoms: _271  and  _272
REMARK  116  A    between atoms: _274  and  _276
REMARK  117  A    between atoms: _276  and  _277
REMARK  118  A    between atoms: _279  and  _281
REMARK  119  A    between atoms: _281  and  _282
REMARK  120  A    between atoms: _284  and  _286
REMARK  121  A    between atoms: _286  and  _287
REMARK  122  A    between atoms: _286  and  _289
REMARK  123  A    between atoms: _292  and  _294
REMARK  124  A    between atoms: _294  and  _295
REMARK  125  A    between atoms: _294  and  _297
REMARK  126  A    between atoms: _300  and  _302
REMARK  127  A    between atoms: _302  and  _303
REMARK  128  A    between atoms: _302  and  _305
REMARK  129  A    between atoms: _305  and  _306
REMARK  130  A    between atoms: _308  and  _310
REMARK  131  A    between atoms: _310  and  _311
REMARK  132  A    between atoms: _310  and  _313
REMARK  133  A    between atoms: _313  and  _314
REMARK  134  A    between atoms: _324  and  _326
REMARK  135  A    between atoms: _326  and  _327
REMARK  136  A    between atoms: _329  and  _331
REMARK  137  A    between atoms: _331  and  _332
REMARK  138  A    between atoms: _331  and  _334
REMARK  139  A    between atoms: _334  and  _335
REMARK  140  A    between atoms: _335  and  _336
REMARK  141  A    between atoms: _339  and  _341
REMARK  142  A    between atoms: _341  and  _342
REMARK  143  A    between atoms: _344  and  _346
REMARK  144  A    between atoms: _346  and  _347
REMARK  145  A    between atoms: _346  and  _349
REMARK  146  A    between atoms: _349  and  _350
REMARK  147  A    between atoms: _351  and  _353
REMARK  148  A    between atoms: _353  and  _354
REMARK  149  A    between atoms: _357  and  _359
REMARK  150  A    between atoms: _359  and  _360
REMARK  151  A    between atoms: _359  and  _362
REMARK  152  A    between atoms: _362  and  _363
REMARK  153  A    between atoms: _363  and  _364
REMARK  154  A    between atoms: _369  and  _371
REMARK  155  A    between atoms: _371  and  _372
REMARK  156  A    between atoms: _371  and  _374
REMARK  157  A    between atoms: _374  and  _375
REMARK  158  A    between atoms: _375  and  _376
REMARK  159  A    between atoms: _376  and  _377
REMARK  160  A    between atoms: _387  and  _388
REMARK  161  A    between atoms: _393  and  _395
REMARK  162  A    between atoms: _395  and  _396
REMARK  163  A    between atoms: _398  and  _400
REMARK  164  A    between atoms: _400  and  _401
REMARK  165  A    between atoms: _400  and  _403
REMARK  166  A    between atoms: _403  and  _404
REMARK  167  A    between atoms: _407  and  _409
REMARK  168  A    between atoms: _409  and  _410
REMARK  169  A    between atoms: _409  and  _412
REMARK  170  A    between atoms: _412  and  _413
REMARK  171  A    between atoms: _418  and  _419
REMARK  172  A    between atoms: _423  and  _424
REMARK  173  A    between atoms: _427  and  _428
REMARK  174  A    between atoms: _433  and  _435
REMARK  175  A    between atoms: _435  and  _436
REMARK  176  A    between atoms: _435  and  _438
REMARK  177  A    between atoms: _438  and  _439
REMARK  178  A    between atoms: _442  and  _444
REMARK  179  A    between atoms: _444  and  _445
REMARK  180  A    between atoms: _444  and  _447
REMARK  181  A    between atoms: _447  and  _448
REMARK  182  A    between atoms: _448  and  _449
REMARK  183  A    between atoms: _449  and  _450
REMARK  184  A    between atoms: _450  and  _451
REMARK  185  A    between atoms: _455  and  _457
REMARK  186  A    between atoms: _457  and  _458
REMARK  187  A    between atoms: _457  and  _460
REMARK  188  A    between atoms: _460  and  _461
REMARK  189  A    between atoms: _467  and  _469
REMARK  190  A    between atoms: _469  and  _470
REMARK  191  A    between atoms: _469  and  _472
REMARK  192  A    between atoms: _472  and  _473
REMARK  193  A    between atoms: _478  and  _479
REMARK  194  A    between atoms: _481  and  _483
REMARK  195  A    between atoms: _483  and  _484
REMARK  196  A    between atoms: _483  and  _486
REMARK  197  A    between atoms: _486  and  _487
REMARK  198  A    between atoms: _490  and  _492
REMARK  199  A    between atoms: _492  and  _493
REMARK  200  A    between atoms: _496  and  _498
REMARK  201  A    between atoms: _498  and  _499
REMARK  202  A    between atoms: _498  and  _501
REMARK  203  A    between atoms: _501  and  _502
REMARK  204  A    between atoms: _502  and  _503
REMARK  205  A    between atoms: _508  and  _510
REMARK  206  A    between atoms: _510  and  _511
REMARK  207  A    between atoms: _510  and  _513
REMARK  208  A    between atoms: _513  and  _514
REMARK                            x       y       z     vdW  Elec       q    Type
REMARK                         _______ _______ _______ _____ _____    ______ ____
ROOT
ATOM      1  O   HOH     1      46.827 -20.189 -15.987  0.00  0.00    +0.000 OA
ENDROOT
TORSDOF 0
REMARK  Name = ../refined-set-2016/3v7t/3v7t_pocket.pdb
REMARK  208 active torsions:
REMARK  status: ('A' for Active; 'I' for Inactive)
REMARK    1  A    between atoms: _1  and  _5
REMARK    2  A    between atoms: _5  and  _6
REMARK    3  A    between atoms: _5  and  _8
REMARK    4  A    between atoms: _8  and  _9
REMARK    5  A    between atoms: _12  and  _14
REMARK    6  A    between atoms: _14  and  _15
REMARK    7  A    between atoms: _14  and  _17
REMARK    8  A    between atoms: _20  and  _22
REMARK    9  A    between atoms: _22  and  _23
REMARK   10  A    between atoms: _22  and  _25
REMARK   11  A    between atoms: _25  and  _26
REMARK   12  A    between atoms: _32  and  _34
REMARK   13  A    between atoms: _34  and  _35
REMARK   14  A    between atoms: _34  and  _37
REMARK   15  A    between atoms: _37  and  _38
REMARK   16  A    between atoms: _38  and  _56
REMARK   17  A    between atoms: _39  and  _41
REMARK   18  A    between atoms: _41  and  _42
REMARK   19  A    between atoms: _41  and  _44
REMARK   20  A    between atoms: _44  and  _45
REMARK   21  A    between atoms: _50  and  _52
REMARK   22  A    between atoms: _52  and  _53
REMARK   23  A    between atoms: _52  and  _55
REMARK   24  A    between atoms: _55  and  _56
REMARK   25  A    between atoms: _57  and  _59
REMARK   26  A    between atoms: _59  and  _60
REMARK   27  A    between atoms: _59  and  _62
REMARK   28  A    between atoms: _62  and  _63
REMARK   29  A    between atoms: _66  and  _68
REMARK   30  A    between atoms: _68  and  _69
REMARK   31  A    between atoms: _72  and  _74
REMARK   32  A    between atoms: _74  and  _75
REMARK   33  A    between atoms: _74  and  _77
REMARK   34  A    between atoms: _77  and  _78
REMARK   35  A    between atoms: _78  and  _79
REMARK   36  A    between atoms: _84  and  _86
REMARK   37  A    between atoms: _86  and  _87
REMARK   38  A    between atoms: _86  and  _89
REMARK   39  A    between atoms: _89  and  _90
REMARK   40  A    between atoms: _93  and  _95
REMARK   41  A    between atoms: _95  and  _96
REMARK   42  A    between atoms: _95  and  _98
REMARK   43  A    between atoms: _98  and  _99
REMARK   44  A    between atoms: _102  and  _104
REMARK   45  A    between atoms: _104  and  _105
REMARK   46  A    between atoms: _104  and  _107
REMARK   47  A    between atoms: _110  and  _112
REMARK   48  A    between atoms: _112  and  _113
REMARK   49  A    between atoms: _112  and  _115
REMARK   50  A    between atoms: _115  and  _116
REMARK   51  A    between atoms: _119  and  _121
REMARK   52  A    between atoms: _121  and  _122
REMARK   53  A    between atoms: _121  and  _124
REMARK   54  A    between atoms: _124  and  _125
REMARK   55  A    between atoms: _130  and  _132
REMARK   56  A    between atoms: _132  and  _133
REMARK   57  A    between atoms: _132  and  _135
REMARK   58  A    between atoms: _135  and  _136
REMARK   59  A    between atoms: _139  and  _141
REMARK   60  A    between atoms: _141  and  _142
REMARK   61  A    between atoms: _141  and  _144
REMARK   62  A    between atoms: _144  and  _145
REMARK   63  A    between atoms: _150  and  _151
REMARK   64  A    between atoms: _153  and  _155
REMARK   65  A    between atoms: _155  and  _156
REMARK   66  A    between atoms: _159  and  _161
REMARK   67  A    between atoms: _161  and  _162
REMARK   68  A    between atoms: _161  and  _164
REMARK   69  A    between atoms: _164  and  _165
REMARK   70  A    between atoms: _168  and  _170
REMARK   71  A    between atoms: _170  and  _171
REMARK   72  A    between atoms: _170  and  _173
REMARK   73  A    between atoms: _173  and  _174
REMARK   74  A    between atoms: _177  and  _179
REMARK   75  A    between atoms: _179  and  _180
REMARK   76  A    between atoms: _183  and  _185
REMARK   77  A    between atoms: _185  and  _186
REMARK   78  A    between atoms: _188  and  _190
REMARK   79  A    between atoms: _190  and  _191
REMARK   80  A    between atoms: _190  and  _193
REMARK   81  A    between atoms: _193  and  _194
REMARK   82  A    between atoms: _199  and  _201
REMARK   83  A    between atoms: _201  and  _202
REMARK   84  A    between atoms: _201  and  _204
REMARK   85  A    between atoms: _204  and  _205
REMARK   86  A    between atoms: _205  and  _206
REMARK   87  A    between atoms: _206  and  _207
REMARK   88  A    between atoms: _216  and  _218
REMARK   89  A    between atoms: _218  and  _219
REMARK   90  A    between atoms: _218  and  _221
REMARK   91  A    between atoms: _221  and  _222
REMARK   92  A    between atoms: _225  and  _227
REMARK   93  A    between atoms: _227  and  _228
REMARK   94  A    between atoms: _227  and  _230
REMARK   95  A    between atoms: _230  and  _231
REMARK   96  A    between atoms: _233  and  _235
REMARK   97  A    between atoms: _235  and  _236
REMARK   98  A    between atoms: _235  and  _238
REMARK   99  A    between atoms: _238  and  _239
REMARK  100  A    between atoms: _239  and  _350
REMARK  101  A    between atoms: _240  and  _242
REMARK  102  A    between atoms: _242  and  _243
REMARK  103  A    between atoms: _242  and  _245
REMARK  104  A    between atoms: _245  and  _246
REMARK  105  A    between atoms: _246  and  _247
REMARK  106  A    between atoms: _252  and  _254
REMARK  107  A    between atoms: _254  and  _255
REMARK  108  A    between atoms: _257  and  _259
REMARK  109  A    between atoms: _259  and  _260
REMARK  110  A    between atoms: _259  and  _262
REMARK  111  A    between atoms: _262  and  _263
REMARK  112  A    between atoms: _266  and  _268
REMARK  113  A    between atoms: _268  and  _269
REMARK  114  A    between atoms: _268  and  _271
REMARK  115  A    between atoms: _271  and  _272
REMARK  116  A    between atoms: _274  and  _276
REMARK  117  A    between atoms: _276  and  _277
REMARK  118  A    between atoms: _279  and  _281
REMARK  119  A    between atoms: _281  and  _282
REMARK  120  A    between atoms: _284  and  _286
REMARK  121  A    between atoms: _286  and  _287
REMARK  122  A    between atoms: _286  and  _289
REMARK  123  A    between atoms: _292  and  _294
REMARK  124  A    between atoms: _294  and  _295
REMARK  125  A    between atoms: _294  and  _297
REMARK  126  A    between atoms: _300  and  _302
REMARK  127  A    between atoms: _302  and  _303
REMARK  128  A    between atoms: _302  and  _305
REMARK  129  A    between atoms: _305  and  _306
REMARK  130  A    between atoms: _308  and  _310
REMARK  131  A    between atoms: _310  and  _311
REMARK  132  A    between atoms: _310  and  _313
REMARK  133  A    between atoms: _313  and  _314
REMARK  134  A    between atoms: _324  and  _326
REMARK  135  A    between atoms: _326  and  _327
REMARK  136  A    between atoms: _329  and  _331
REMARK  137  A    between atoms: _331  and  _332
REMARK  138  A    between atoms: _331  and  _334
REMARK  139  A    between atoms: _334  and  _335
REMARK  140  A    between atoms: _335  and  _336
REMARK  141  A    between atoms: _339  and  _341
REMARK  142  A    between atoms: _341  and  _342
REMARK  143  A    between atoms: _344  and  _346
REMARK  144  A    between atoms: _346  and  _347
REMARK  145  A    between atoms: _346  and  _349
REMARK  146  A    between atoms: _349  and  _350
REMARK  147  A    between atoms: _351  and  _353
REMARK  148  A    between atoms: _353  and  _354
REMARK  149  A    between atoms: _357  and  _359
REMARK  150  A    between atoms: _359  and  _360
REMARK  151  A    between atoms: _359  and  _362
REMARK  152  A    between atoms: _362  and  _363
REMARK  153  A    between atoms: _363  and  _364
REMARK  154  A    between atoms: _369  and  _371
REMARK  155  A    between atoms: _371  and  _372
REMARK  156  A    between atoms: _371  and  _374
REMARK  157  A    between atoms: _374  and  _375
REMARK  158  A    between atoms: _375  and  _376
REMARK  159  A    between atoms: _376  and  _377
REMARK  160  A    between atoms: _387  and  _388
REMARK  161  A    between atoms: _393  and  _395
REMARK  162  A    between atoms: _395  and  _396
REMARK  163  A    between atoms: _398  and  _400
REMARK  164  A    between atoms: _400  and  _401
REMARK  165  A    between atoms: _400  and  _403
REMARK  166  A    between atoms: _403  and  _404
REMARK  167  A    between atoms: _407  and  _409
REMARK  168  A    between atoms: _409  and  _410
REMARK  169  A    between atoms: _409  and  _412
REMARK  170  A    between atoms: _412  and  _413
REMARK  171  A    between atoms: _418  and  _419
REMARK  172  A    between atoms: _423  and  _424
REMARK  173  A    between atoms: _427  and  _428
REMARK  174  A    between atoms: _433  and  _435
REMARK  175  A    between atoms: _435  and  _436
REMARK  176  A    between atoms: _435  and  _438
REMARK  177  A    between atoms: _438  and  _439
REMARK  178  A    between atoms: _442  and  _444
REMARK  179  A    between atoms: _444  and  _445
REMARK  180  A    between atoms: _444  and  _447
REMARK  181  A    between atoms: _447  and  _448
REMARK  182  A    between atoms: _448  and  _449
REMARK  183  A    between atoms: _449  and  _450
REMARK  184  A    between atoms: _450  and  _451
REMARK  185  A    between atoms: _455  and  _457
REMARK  186  A    between atoms: _457  and  _458
REMARK  187  A    between atoms: _457  and  _460
REMARK  188  A    between atoms: _460  and  _461
REMARK  189  A    between atoms: _467  and  _469
REMARK  190  A    between atoms: _469  and  _470
REMARK  191  A    between atoms: _469  and  _472
REMARK  192  A    between atoms: _472  and  _473
REMARK  193  A    between atoms: _478  and  _479
REMARK  194  A    between atoms: _481  and  _483
REMARK  195  A    between atoms: _483  and  _484
REMARK  196  A    between atoms: _483  and  _486
REMARK  197  A    between atoms: _486  and  _487
REMARK  198  A    between atoms: _490  and  _492
REMARK  199  A    between atoms: _492  and  _493
REMARK  200  A    between atoms: _496  and  _498
REMARK  201  A    between atoms: _498  and  _499
REMARK  202  A    between atoms: _498  and  _501
REMARK  203  A    between atoms: _501  and  _502
REMARK  204  A    between atoms: _502  and  _503
REMARK  205  A    between atoms: _508  and  _510
REMARK  206  A    between atoms: _510  and  _511
REMARK  207  A    between atoms: _510  and  _513
REMARK  208  A    between atoms: _513  and  _514
REMARK                            x       y       z     vdW  Elec       q    Type
REMARK                         _______ _______ _______ _____ _____    ______ ____
ROOT
ATOM      1  O   HOH     1      57.459 -13.985  -4.925  0.00  0.00    +0.000 OA
ENDROOT
TORSDOF 0
REMARK  Name = ../refined-set-2016/3v7t/3v7t_pocket.pdb
REMARK  208 active torsions:
REMARK  status: ('A' for Active; 'I' for Inactive)
REMARK    1  A    between atoms: _1  and  _5
REMARK    2  A    between atoms: _5  and  _6
REMARK    3  A    between atoms: _5  and  _8
REMARK    4  A    between atoms: _8  and  _9
REMARK    5  A    between atoms: _12  and  _14
REMARK    6  A    between atoms: _14  and  _15
REMARK    7  A    between atoms: _14  and  _17
REMARK    8  A    between atoms: _20  and  _22
REMARK    9  A    between atoms: _22  and  _23
REMARK   10  A    between atoms: _22  and  _25
REMARK   11  A    between atoms: _25  and  _26
REMARK   12  A    between atoms: _32  and  _34
REMARK   13  A    between atoms: _34  and  _35
REMARK   14  A    between atoms: _34  and  _37
REMARK   15  A    between atoms: _37  and  _38
REMARK   16  A    between atoms: _38  and  _56
REMARK   17  A    between atoms: _39  and  _41
REMARK   18  A    between atoms: _41  and  _42
REMARK   19  A    between atoms: _41  and  _44
REMARK   20  A    between atoms: _44  and  _45
REMARK   21  A    between atoms: _50  and  _52
REMARK   22  A    between atoms: _52  and  _53
REMARK   23  A    between atoms: _52  and  _55
REMARK   24  A    between atoms: _55  and  _56
REMARK   25  A    between atoms: _57  and  _59
REMARK   26  A    between atoms: _59  and  _60
REMARK   27  A    between atoms: _59  and  _62
REMARK   28  A    between atoms: _62  and  _63
REMARK   29  A    between atoms: _66  and  _68
REMARK   30  A    between atoms: _68  and  _69
REMARK   31  A    between atoms: _72  and  _74
REMARK   32  A    between atoms: _74  and  _75
REMARK   33  A    between atoms: _74  and  _77
REMARK   34  A    between atoms: _77  and  _78
REMARK   35  A    between atoms: _78  and  _79
REMARK   36  A    between atoms: _84  and  _86
REMARK   37  A    between atoms: _86  and  _87
REMARK   38  A    between atoms: _86  and  _89
REMARK   39  A    between atoms: _89  and  _90
REMARK   40  A    between atoms: _93  and  _95
REMARK   41  A    between atoms: _95  and  _96
REMARK   42  A    between atoms: _95  and  _98
REMARK   43  A    between atoms: _98  and  _99
REMARK   44  A    between atoms: _102  and  _104
REMARK   45  A    between atoms: _104  and  _105
REMARK   46  A    between atoms: _104  and  _107
REMARK   47  A    between atoms: _110  and  _112
REMARK   48  A    between atoms: _112  and  _113
REMARK   49  A    between atoms: _112  and  _115
REMARK   50  A    between atoms: _115  and  _116
REMARK   51  A    between atoms: _119  and  _121
REMARK   52  A    between atoms: _121  and  _122
REMARK   53  A    between atoms: _121  and  _124
REMARK   54  A    between atoms: _124  and  _125
REMARK   55  A    between atoms: _130  and  _132
REMARK   56  A    between atoms: _132  and  _133
REMARK   57  A    between atoms: _132  and  _135
REMARK   58  A    between atoms: _135  and  _136
REMARK   59  A    between atoms: _139  and  _141
REMARK   60  A    between atoms: _141  and  _142
REMARK   61  A    between atoms: _141  and  _144
REMARK   62  A    between atoms: _144  and  _145
REMARK   63  A    between atoms: _150  and  _151
REMARK   64  A    between atoms: _153  and  _155
REMARK   65  A    between atoms: _155  and  _156
REMARK   66  A    between atoms: _159  and  _161
REMARK   67  A    between atoms: _161  and  _162
REMARK   68  A    between atoms: _161  and  _164
REMARK   69  A    between atoms: _164  and  _165
REMARK   70  A    between atoms: _168  and  _170
REMARK   71  A    between atoms: _170  and  _171
REMARK   72  A    between atoms: _170  and  _173
REMARK   73  A    between atoms: _173  and  _174
REMARK   74  A    between atoms: _177  and  _179
REMARK   75  A    between atoms: _179  and  _180
REMARK   76  A    between atoms: _183  and  _185
REMARK   77  A    between atoms: _185  and  _186
REMARK   78  A    between atoms: _188  and  _190
REMARK   79  A    between atoms: _190  and  _191
REMARK   80  A    between atoms: _190  and  _193
REMARK   81  A    between atoms: _193  and  _194
REMARK   82  A    between atoms: _199  and  _201
REMARK   83  A    between atoms: _201  and  _202
REMARK   84  A    between atoms: _201  and  _204
REMARK   85  A    between atoms: _204  and  _205
REMARK   86  A    between atoms: _205  and  _206
REMARK   87  A    between atoms: _206  and  _207
REMARK   88  A    between atoms: _216  and  _218
REMARK   89  A    between atoms: _218  and  _219
REMARK   90  A    between atoms: _218  and  _221
REMARK   91  A    between atoms: _221  and  _222
REMARK   92  A    between atoms: _225  and  _227
REMARK   93  A    between atoms: _227  and  _228
REMARK   94  A    between atoms: _227  and  _230
REMARK   95  A    between atoms: _230  and  _231
REMARK   96  A    between atoms: _233  and  _235
REMARK   97  A    between atoms: _235  and  _236
REMARK   98  A    between atoms: _235  and  _238
REMARK   99  A    between atoms: _238  and  _239
REMARK  100  A    between atoms: _239  and  _350
REMARK  101  A    between atoms: _240  and  _242
REMARK  102  A    between atoms: _242  and  _243
REMARK  103  A    between atoms: _242  and  _245
REMARK  104  A    between atoms: _245  and  _246
REMARK  105  A    between atoms: _246  and  _247
REMARK  106  A    between atoms: _252  and  _254
REMARK  107  A    between atoms: _254  and  _255
REMARK  108  A    between atoms: _257  and  _259
REMARK  109  A    between atoms: _259  and  _260
REMARK  110  A    between atoms: _259  and  _262
REMARK  111  A    between atoms: _262  and  _263
REMARK  112  A    between atoms: _266  and  _268
REMARK  113  A    between atoms: _268  and  _269
REMARK  114  A    between atoms: _268  and  _271
REMARK  115  A    between atoms: _271  and  _272
REMARK  116  A    between atoms: _274  and  _276
REMARK  117  A    between atoms: _276  and  _277
REMARK  118  A    between atoms: _279  and  _281
REMARK  119  A    between atoms: _281  and  _282
REMARK  120  A    between atoms: _284  and  _286
REMARK  121  A    between atoms: _286  and  _287
REMARK  122  A    between atoms: _286  and  _289
REMARK  123  A    between atoms: _292  and  _294
REMARK  124  A    between atoms: _294  and  _295
REMARK  125  A    between atoms: _294  and  _297
REMARK  126  A    between atoms: _300  and  _302
REMARK  127  A    between atoms: _302  and  _303
REMARK  128  A    between atoms: _302  and  _305
REMARK  129  A    between atoms: _305  and  _306
REMARK  130  A    between atoms: _308  and  _310
REMARK  131  A    between atoms: _310  and  _311
REMARK  132  A    between atoms: _310  and  _313
REMARK  133  A    between atoms: _313  and  _314
REMARK  134  A    between atoms: _324  and  _326
REMARK  135  A    between atoms: _326  and  _327
REMARK  136  A    between atoms: _329  and  _331
REMARK  137  A    between atoms: _331  and  _332
REMARK  138  A    between atoms: _331  and  _334
REMARK  139  A    between atoms: _334  and  _335
REMARK  140  A    between atoms: _335  and  _336
REMARK  141  A    between atoms: _339  and  _341
REMARK  142  A    between atoms: _341  and  _342
REMARK  143  A    between atoms: _344  and  _346
REMARK  144  A    between atoms: _346  and  _347
REMARK  145  A    between atoms: _346  and  _349
REMARK  146  A    between atoms: _349  and  _350
REMARK  147  A    between atoms: _351  and  _353
REMARK  148  A    between atoms: _353  and  _354
REMARK  149  A    between atoms: _357  and  _359
REMARK  150  A    between atoms: _359  and  _360
REMARK  151  A    between atoms: _359  and  _362
REMARK  152  A    between atoms: _362  and  _363
REMARK  153  A    between atoms: _363  and  _364
REMARK  154  A    between atoms: _369  and  _371
REMARK  155  A    between atoms: _371  and  _372
REMARK  156  A    between atoms: _371  and  _374
REMARK  157  A    between atoms: _374  and  _375
REMARK  158  A    between atoms: _375  and  _376
REMARK  159  A    between atoms: _376  and  _377
REMARK  160  A    between atoms: _387  and  _388
REMARK  161  A    between atoms: _393  and  _395
REMARK  162  A    between atoms: _395  and  _396
REMARK  163  A    between atoms: _398  and  _400
REMARK  164  A    between atoms: _400  and  _401
REMARK  165  A    between atoms: _400  and  _403
REMARK  166  A    between atoms: _403  and  _404
REMARK  167  A    between atoms: _407  and  _409
REMARK  168  A    between atoms: _409  and  _410
REMARK  169  A    between atoms: _409  and  _412
REMARK  170  A    between atoms: _412  and  _413
REMARK  171  A    between atoms: _418  and  _419
REMARK  172  A    between atoms: _423  and  _424
REMARK  173  A    between atoms: _427  and  _428
REMARK  174  A    between atoms: _433  and  _435
REMARK  175  A    between atoms: _435  and  _436
REMARK  176  A    between atoms: _435  and  _438
REMARK  177  A    between atoms: _438  and  _439
REMARK  178  A    between atoms: _442  and  _444
REMARK  179  A    between atoms: _444  and  _445
REMARK  180  A    between atoms: _444  and  _447
REMARK  181  A    between atoms: _447  and  _448
REMARK  182  A    between atoms: _448  and  _449
REMARK  183  A    between atoms: _449  and  _450
REMARK  184  A    between atoms: _450  and  _451
REMARK  185  A    between atoms: _455  and  _457
REMARK  186  A    between atoms: _457  and  _458
REMARK  187  A    between atoms: _457  and  _460
REMARK  188  A    between atoms: _460  and  _461
REMARK  189  A    between atoms: _467  and  _469
REMARK  190  A    between atoms: _469  and  _470
REMARK  191  A    between atoms: _469  and  _472
REMARK  192  A    between atoms: _472  and  _473
REMARK  193  A    between atoms: _478  and  _479
REMARK  194  A    between atoms: _481  and  _483
REMARK  195  A    between atoms: _483  and  _484
REMARK  196  A    between atoms: _483  and  _486
REMARK  197  A    between atoms: _486  and  _487
REMARK  198  A    between atoms: _490  and  _492
REMARK  199  A    between atoms: _492  and  _493
REMARK  200  A    between atoms: _496  and  _498
REMARK  201  A    between atoms: _498  and  _499
REMARK  202  A    between atoms: _498  and  _501
REMARK  203  A    between atoms: _501  and  _502
REMARK  204  A    between atoms: _502  and  _503
REMARK  205  A    between atoms: _508  and  _510
REMARK  206  A    between atoms: _510  and  _511
REMARK  207  A    between atoms: _510  and  _513
REMARK  208  A    between atoms: _513  and  _514
REMARK                            x       y       z     vdW  Elec       q    Type
REMARK                         _______ _______ _______ _____ _____    ______ ____
ROOT
ATOM      1  O   HOH     1      44.756 -17.369   0.314  0.00  0.00    +0.000 OA
ENDROOT
TORSDOF 0
REMARK  Name = ../refined-set-2016/3v7t/3v7t_pocket.pdb
REMARK  208 active torsions:
REMARK  status: ('A' for Active; 'I' for Inactive)
REMARK    1  A    between atoms: _1  and  _5
REMARK    2  A    between atoms: _5  and  _6
REMARK    3  A    between atoms: _5  and  _8
REMARK    4  A    between atoms: _8  and  _9
REMARK    5  A    between atoms: _12  and  _14
REMARK    6  A    between atoms: _14  and  _15
REMARK    7  A    between atoms: _14  and  _17
REMARK    8  A    between atoms: _20  and  _22
REMARK    9  A    between atoms: _22  and  _23
REMARK   10  A    between atoms: _22  and  _25
REMARK   11  A    between atoms: _25  and  _26
REMARK   12  A    between atoms: _32  and  _34
REMARK   13  A    between atoms: _34  and  _35
REMARK   14  A    between atoms: _34  and  _37
REMARK   15  A    between atoms: _37  and  _38
REMARK   16  A    between atoms: _38  and  _56
REMARK   17  A    between atoms: _39  and  _41
REMARK   18  A    between atoms: _41  and  _42
REMARK   19  A    between atoms: _41  and  _44
REMARK   20  A    between atoms: _44  and  _45
REMARK   21  A    between atoms: _50  and  _52
REMARK   22  A    between atoms: _52  and  _53
REMARK   23  A    between atoms: _52  and  _55
REMARK   24  A    between atoms: _55  and  _56
REMARK   25  A    between atoms: _57  and  _59
REMARK   26  A    between atoms: _59  and  _60
REMARK   27  A    between atoms: _59  and  _62
REMARK   28  A    between atoms: _62  and  _63
REMARK   29  A    between atoms: _66  and  _68
REMARK   30  A    between atoms: _68  and  _69
REMARK   31  A    between atoms: _72  and  _74
REMARK   32  A    between atoms: _74  and  _75
REMARK   33  A    between atoms: _74  and  _77
REMARK   34  A    between atoms: _77  and  _78
REMARK   35  A    between atoms: _78  and  _79
REMARK   36  A    between atoms: _84  and  _86
REMARK   37  A    between atoms: _86  and  _87
REMARK   38  A    between atoms: _86  and  _89
REMARK   39  A    between atoms: _89  and  _90
REMARK   40  A    between atoms: _93  and  _95
REMARK   41  A    between atoms: _95  and  _96
REMARK   42  A    between atoms: _95  and  _98
REMARK   43  A    between atoms: _98  and  _99
REMARK   44  A    between atoms: _102  and  _104
REMARK   45  A    between atoms: _104  and  _105
REMARK   46  A    between atoms: _104  and  _107
REMARK   47  A    between atoms: _110  and  _112
REMARK   48  A    between atoms: _112  and  _113
REMARK   49  A    between atoms: _112  and  _115
REMARK   50  A    between atoms: _115  and  _116
REMARK   51  A    between atoms: _119  and  _121
REMARK   52  A    between atoms: _121  and  _122
REMARK   53  A    between atoms: _121  and  _124
REMARK   54  A    between atoms: _124  and  _125
REMARK   55  A    between atoms: _130  and  _132
REMARK   56  A    between atoms: _132  and  _133
REMARK   57  A    between atoms: _132  and  _135
REMARK   58  A    between atoms: _135  and  _136
REMARK   59  A    between atoms: _139  and  _141
REMARK   60  A    between atoms: _141  and  _142
REMARK   61  A    between atoms: _141  and  _144
REMARK   62  A    between atoms: _144  and  _145
REMARK   63  A    between atoms: _150  and  _151
REMARK   64  A    between atoms: _153  and  _155
REMARK   65  A    between atoms: _155  and  _156
REMARK   66  A    between atoms: _159  and  _161
REMARK   67  A    between atoms: _161  and  _162
REMARK   68  A    between atoms: _161  and  _164
REMARK   69  A    between atoms: _164  and  _165
REMARK   70  A    between atoms: _168  and  _170
REMARK   71  A    between atoms: _170  and  _171
REMARK   72  A    between atoms: _170  and  _173
REMARK   73  A    between atoms: _173  and  _174
REMARK   74  A    between atoms: _177  and  _179
REMARK   75  A    between atoms: _179  and  _180
REMARK   76  A    between atoms: _183  and  _185
REMARK   77  A    between atoms: _185  and  _186
REMARK   78  A    between atoms: _188  and  _190
REMARK   79  A    between atoms: _190  and  _191
REMARK   80  A    between atoms: _190  and  _193
REMARK   81  A    between atoms: _193  and  _194
REMARK   82  A    between atoms: _199  and  _201
REMARK   83  A    between atoms: _201  and  _202
REMARK   84  A    between atoms: _201  and  _204
REMARK   85  A    between atoms: _204  and  _205
REMARK   86  A    between atoms: _205  and  _206
REMARK   87  A    between atoms: _206  and  _207
REMARK   88  A    between atoms: _216  and  _218
REMARK   89  A    between atoms: _218  and  _219
REMARK   90  A    between atoms: _218  and  _221
REMARK   91  A    between atoms: _221  and  _222
REMARK   92  A    between atoms: _225  and  _227
REMARK   93  A    between atoms: _227  and  _228
REMARK   94  A    between atoms: _227  and  _230
REMARK   95  A    between atoms: _230  and  _231
REMARK   96  A    between atoms: _233  and  _235
REMARK   97  A    between atoms: _235  and  _236
REMARK   98  A    between atoms: _235  and  _238
REMARK   99  A    between atoms: _238  and  _239
REMARK  100  A    between atoms: _239  and  _350
REMARK  101  A    between atoms: _240  and  _242
REMARK  102  A    between atoms: _242  and  _243
REMARK  103  A    between atoms: _242  and  _245
REMARK  104  A    between atoms: _245  and  _246
REMARK  105  A    between atoms: _246  and  _247
REMARK  106  A    between atoms: _252  and  _254
REMARK  107  A    between atoms: _254  and  _255
REMARK  108  A    between atoms: _257  and  _259
REMARK  109  A    between atoms: _259  and  _260
REMARK  110  A    between atoms: _259  and  _262
REMARK  111  A    between atoms: _262  and  _263
REMARK  112  A    between atoms: _266  and  _268
REMARK  113  A    between atoms: _268  and  _269
REMARK  114  A    between atoms: _268  and  _271
REMARK  115  A    between atoms: _271  and  _272
REMARK  116  A    between atoms: _274  and  _276
REMARK  117  A    between atoms: _276  and  _277
REMARK  118  A    between atoms: _279  and  _281
REMARK  119  A    between atoms: _281  and  _282
REMARK  120  A    between atoms: _284  and  _286
REMARK  121  A    between atoms: _286  and  _287
REMARK  122  A    between atoms: _286  and  _289
REMARK  123  A    between atoms: _292  and  _294
REMARK  124  A    between atoms: _294  and  _295
REMARK  125  A    between atoms: _294  and  _297
REMARK  126  A    between atoms: _300  and  _302
REMARK  127  A    between atoms: _302  and  _303
REMARK  128  A    between atoms: _302  and  _305
REMARK  129  A    between atoms: _305  and  _306
REMARK  130  A    between atoms: _308  and  _310
REMARK  131  A    between atoms: _310  and  _311
REMARK  132  A    between atoms: _310  and  _313
REMARK  133  A    between atoms: _313  and  _314
REMARK  134  A    between atoms: _324  and  _326
REMARK  135  A    between atoms: _326  and  _327
REMARK  136  A    between atoms: _329  and  _331
REMARK  137  A    between atoms: _331  and  _332
REMARK  138  A    between atoms: _331  and  _334
REMARK  139  A    between atoms: _334  and  _335
REMARK  140  A    between atoms: _335  and  _336
REMARK  141  A    between atoms: _339  and  _341
REMARK  142  A    between atoms: _341  and  _342
REMARK  143  A    between atoms: _344  and  _346
REMARK  144  A    between atoms: _346  and  _347
REMARK  145  A    between atoms: _346  and  _349
REMARK  146  A    between atoms: _349  and  _350
REMARK  147  A    between atoms: _351  and  _353
REMARK  148  A    between atoms: _353  and  _354
REMARK  149  A    between atoms: _357  and  _359
REMARK  150  A    between atoms: _359  and  _360
REMARK  151  A    between atoms: _359  and  _362
REMARK  152  A    between atoms: _362  and  _363
REMARK  153  A    between atoms: _363  and  _364
REMARK  154  A    between atoms: _369  and  _371
REMARK  155  A    between atoms: _371  and  _372
REMARK  156  A    between atoms: _371  and  _374
REMARK  157  A    between atoms: _374  and  _375
REMARK  158  A    between atoms: _375  and  _376
REMARK  159  A    between atoms: _376  and  _377
REMARK  160  A    between atoms: _387  and  _388
REMARK  161  A    between atoms: _393  and  _395
REMARK  162  A    between atoms: _395  and  _396
REMARK  163  A    between atoms: _398  and  _400
REMARK  164  A    between atoms: _400  and  _401
REMARK  165  A    between atoms: _400  and  _403
REMARK  166  A    between atoms: _403  and  _404
REMARK  167  A    between atoms: _407  and  _409
REMARK  168  A    between atoms: _409  and  _410
REMARK  169  A    between atoms: _409  and  _412
REMARK  170  A    between atoms: _412  and  _413
REMARK  171  A    between atoms: _418  and  _419
REMARK  172  A    between atoms: _423  and  _424
REMARK  173  A    between atoms: _427  and  _428
REMARK  174  A    between atoms: _433  and  _435
REMARK  175  A    between atoms: _435  and  _436
REMARK  176  A    between atoms: _435  and  _438
REMARK  177  A    between atoms: _438  and  _439
REMARK  178  A    between atoms: _442  and  _444
REMARK  179  A    between atoms: _444  and  _445
REMARK  180  A    between atoms: _444  and  _447
REMARK  181  A    between atoms: _447  and  _448
REMARK  182  A    between atoms: _448  and  _449
REMARK  183  A    between atoms: _449  and  _450
REMARK  184  A    between atoms: _450  and  _451
REMARK  185  A    between atoms: _455  and  _457
REMARK  186  A    between atoms: _457  and  _458
REMARK  187  A    between atoms: _457  and  _460
REMARK  188  A    between atoms: _460  and  _461
REMARK  189  A    between atoms: _467  and  _469
REMARK  190  A    between atoms: _469  and  _470
REMARK  191  A    between atoms: _469  and  _472
REMARK  192  A    between atoms: _472  and  _473
REMARK  193  A    between atoms: _478  and  _479
REMARK  194  A    between atoms: _481  and  _483
REMARK  195  A    between atoms: _483  and  _484
REMARK  196  A    between atoms: _483  and  _486
REMARK  197  A    between atoms: _486  and  _487
REMARK  198  A    between atoms: _490  and  _492
REMARK  199  A    between atoms: _492  and  _493
REMARK  200  A    between atoms: _496  and  _498
REMARK  201  A    between atoms: _498  and  _499
REMARK  202  A    between atoms: _498  and  _501
REMARK  203  A    between atoms: _501  and  _502
REMARK  204  A    between atoms: _502  and  _503
REMARK  205  A    between atoms: _508  and  _510
REMARK  206  A    between atoms: _510  and  _511
REMARK  207  A    between atoms: _510  and  _513
REMARK  208  A    between atoms: _513  and  _514
REMARK                            x       y       z     vdW  Elec       q    Type
REMARK                         _______ _______ _______ _____ _____    ______ ____
ROOT
ATOM      1  O   HOH     1      47.120 -18.981 -10.106  0.00  0.00    +0.000 OA
ENDROOT
TORSDOF 0
REMARK  Name = ../refined-set-2016/3v7t/3v7t_pocket.pdb
REMARK  208 active torsions:
REMARK  status: ('A' for Active; 'I' for Inactive)
REMARK    1  A    between atoms: _1  and  _5
REMARK    2  A    between atoms: _5  and  _6
REMARK    3  A    between atoms: _5  and  _8
REMARK    4  A    between atoms: _8  and  _9
REMARK    5  A    between atoms: _12  and  _14
REMARK    6  A    between atoms: _14  and  _15
REMARK    7  A    between atoms: _14  and  _17
REMARK    8  A    between atoms: _20  and  _22
REMARK    9  A    between atoms: _22  and  _23
REMARK   10  A    between atoms: _22  and  _25
REMARK   11  A    between atoms: _25  and  _26
REMARK   12  A    between atoms: _32  and  _34
REMARK   13  A    between atoms: _34  and  _35
REMARK   14  A    between atoms: _34  and  _37
REMARK   15  A    between atoms: _37  and  _38
REMARK   16  A    between atoms: _38  and  _56
REMARK   17  A    between atoms: _39  and  _41
REMARK   18  A    between atoms: _41  and  _42
REMARK   19  A    between atoms: _41  and  _44
REMARK   20  A    between atoms: _44  and  _45
REMARK   21  A    between atoms: _50  and  _52
REMARK   22  A    between atoms: _52  and  _53
REMARK   23  A    between atoms: _52  and  _55
REMARK   24  A    between atoms: _55  and  _56
REMARK   25  A    between atoms: _57  and  _59
REMARK   26  A    between atoms: _59  and  _60
REMARK   27  A    between atoms: _59  and  _62
REMARK   28  A    between atoms: _62  and  _63
REMARK   29  A    between atoms: _66  and  _68
REMARK   30  A    between atoms: _68  and  _69
REMARK   31  A    between atoms: _72  and  _74
REMARK   32  A    between atoms: _74  and  _75
REMARK   33  A    between atoms: _74  and  _77
REMARK   34  A    between atoms: _77  and  _78
REMARK   35  A    between atoms: _78  and  _79
REMARK   36  A    between atoms: _84  and  _86
REMARK   37  A    between atoms: _86  and  _87
REMARK   38  A    between atoms: _86  and  _89
REMARK   39  A    between atoms: _89  and  _90
REMARK   40  A    between atoms: _93  and  _95
REMARK   41  A    between atoms: _95  and  _96
REMARK   42  A    between atoms: _95  and  _98
REMARK   43  A    between atoms: _98  and  _99
REMARK   44  A    between atoms: _102  and  _104
REMARK   45  A    between atoms: _104  and  _105
REMARK   46  A    between atoms: _104  and  _107
REMARK   47  A    between atoms: _110  and  _112
REMARK   48  A    between atoms: _112  and  _113
REMARK   49  A    between atoms: _112  and  _115
REMARK   50  A    between atoms: _115  and  _116
REMARK   51  A    between atoms: _119  and  _121
REMARK   52  A    between atoms: _121  and  _122
REMARK   53  A    between atoms: _121  and  _124
REMARK   54  A    between atoms: _124  and  _125
REMARK   55  A    between atoms: _130  and  _132
REMARK   56  A    between atoms: _132  and  _133
REMARK   57  A    between atoms: _132  and  _135
REMARK   58  A    between atoms: _135  and  _136
REMARK   59  A    between atoms: _139  and  _141
REMARK   60  A    between atoms: _141  and  _142
REMARK   61  A    between atoms: _141  and  _144
REMARK   62  A    between atoms: _144  and  _145
REMARK   63  A    between atoms: _150  and  _151
REMARK   64  A    between atoms: _153  and  _155
REMARK   65  A    between atoms: _155  and  _156
REMARK   66  A    between atoms: _159  and  _161
REMARK   67  A    between atoms: _161  and  _162
REMARK   68  A    between atoms: _161  and  _164
REMARK   69  A    between atoms: _164  and  _165
REMARK   70  A    between atoms: _168  and  _170
REMARK   71  A    between atoms: _170  and  _171
REMARK   72  A    between atoms: _170  and  _173
REMARK   73  A    between atoms: _173  and  _174
REMARK   74  A    between atoms: _177  and  _179
REMARK   75  A    between atoms: _179  and  _180
REMARK   76  A    between atoms: _183  and  _185
REMARK   77  A    between atoms: _185  and  _186
REMARK   78  A    between atoms: _188  and  _190
REMARK   79  A    between atoms: _190  and  _191
REMARK   80  A    between atoms: _190  and  _193
REMARK   81  A    between atoms: _193  and  _194
REMARK   82  A    between atoms: _199  and  _201
REMARK   83  A    between atoms: _201  and  _202
REMARK   84  A    between atoms: _201  and  _204
REMARK   85  A    between atoms: _204  and  _205
REMARK   86  A    between atoms: _205  and  _206
REMARK   87  A    between atoms: _206  and  _207
REMARK   88  A    between atoms: _216  and  _218
REMARK   89  A    between atoms: _218  and  _219
REMARK   90  A    between atoms: _218  and  _221
REMARK   91  A    between atoms: _221  and  _222
REMARK   92  A    between atoms: _225  and  _227
REMARK   93  A    between atoms: _227  and  _228
REMARK   94  A    between atoms: _227  and  _230
REMARK   95  A    between atoms: _230  and  _231
REMARK   96  A    between atoms: _233  and  _235
REMARK   97  A    between atoms: _235  and  _236
REMARK   98  A    between atoms: _235  and  _238
REMARK   99  A    between atoms: _238  and  _239
REMARK  100  A    between atoms: _239  and  _350
REMARK  101  A    between atoms: _240  and  _242
REMARK  102  A    between atoms: _242  and  _243
REMARK  103  A    between atoms: _242  and  _245
REMARK  104  A    between atoms: _245  and  _246
REMARK  105  A    between atoms: _246  and  _247
REMARK  106  A    between atoms: _252  and  _254
REMARK  107  A    between atoms: _254  and  _255
REMARK  108  A    between atoms: _257  and  _259
REMARK  109  A    between atoms: _259  and  _260
REMARK  110  A    between atoms: _259  and  _262
REMARK  111  A    between atoms: _262  and  _263
REMARK  112  A    between atoms: _266  and  _268
REMARK  113  A    between atoms: _268  and  _269
REMARK  114  A    between atoms: _268  and  _271
REMARK  115  A    between atoms: _271  and  _272
REMARK  116  A    between atoms: _274  and  _276
REMARK  117  A    between atoms: _276  and  _277
REMARK  118  A    between atoms: _279  and  _281
REMARK  119  A    between atoms: _281  and  _282
REMARK  120  A    between atoms: _284  and  _286
REMARK  121  A    between atoms: _286  and  _287
REMARK  122  A    between atoms: _286  and  _289
REMARK  123  A    between atoms: _292  and  _294
REMARK  124  A    between atoms: _294  and  _295
REMARK  125  A    between atoms: _294  and  _297
REMARK  126  A    between atoms: _300  and  _302
REMARK  127  A    between atoms: _302  and  _303
REMARK  128  A    between atoms: _302  and  _305
REMARK  129  A    between atoms: _305  and  _306
REMARK  130  A    between atoms: _308  and  _310
REMARK  131  A    between atoms: _310  and  _311
REMARK  132  A    between atoms: _310  and  _313
REMARK  133  A    between atoms: _313  and  _314
REMARK  134  A    between atoms: _324  and  _326
REMARK  135  A    between atoms: _326  and  _327
REMARK  136  A    between atoms: _329  and  _331
REMARK  137  A    between atoms: _331  and  _332
REMARK  138  A    between atoms: _331  and  _334
REMARK  139  A    between atoms: _334  and  _335
REMARK  140  A    between atoms: _335  and  _336
REMARK  141  A    between atoms: _339  and  _341
REMARK  142  A    between atoms: _341  and  _342
REMARK  143  A    between atoms: _344  and  _346
REMARK  144  A    between atoms: _346  and  _347
REMARK  145  A    between atoms: _346  and  _349
REMARK  146  A    between atoms: _349  and  _350
REMARK  147  A    between atoms: _351  and  _353
REMARK  148  A    between atoms: _353  and  _354
REMARK  149  A    between atoms: _357  and  _359
REMARK  150  A    between atoms: _359  and  _360
REMARK  151  A    between atoms: _359  and  _362
REMARK  152  A    between atoms: _362  and  _363
REMARK  153  A    between atoms: _363  and  _364
REMARK  154  A    between atoms: _369  and  _371
REMARK  155  A    between atoms: _371  and  _372
REMARK  156  A    between atoms: _371  and  _374
REMARK  157  A    between atoms: _374  and  _375
REMARK  158  A    between atoms: _375  and  _376
REMARK  159  A    between atoms: _376  and  _377
REMARK  160  A    between atoms: _387  and  _388
REMARK  161  A    between atoms: _393  and  _395
REMARK  162  A    between atoms: _395  and  _396
REMARK  163  A    between atoms: _398  and  _400
REMARK  164  A    between atoms: _400  and  _401
REMARK  165  A    between atoms: _400  and  _403
REMARK  166  A    between atoms: _403  and  _404
REMARK  167  A    between atoms: _407  and  _409
REMARK  168  A    between atoms: _409  and  _410
REMARK  169  A    between atoms: _409  and  _412
REMARK  170  A    between atoms: _412  and  _413
REMARK  171  A    between atoms: _418  and  _419
REMARK  172  A    between atoms: _423  and  _424
REMARK  173  A    between atoms: _427  and  _428
REMARK  174  A    between atoms: _433  and  _435
REMARK  175  A    between atoms: _435  and  _436
REMARK  176  A    between atoms: _435  and  _438
REMARK  177  A    between atoms: _438  and  _439
REMARK  178  A    between atoms: _442  and  _444
REMARK  179  A    between atoms: _444  and  _445
REMARK  180  A    between atoms: _444  and  _447
REMARK  181  A    between atoms: _447  and  _448
REMARK  182  A    between atoms: _448  and  _449
REMARK  183  A    between atoms: _449  and  _450
REMARK  184  A    between atoms: _450  and  _451
REMARK  185  A    between atoms: _455  and  _457
REMARK  186  A    between atoms: _457  and  _458
REMARK  187  A    between atoms: _457  and  _460
REMARK  188  A    between atoms: _460  and  _461
REMARK  189  A    between atoms: _467  and  _469
REMARK  190  A    between atoms: _469  and  _470
REMARK  191  A    between atoms: _469  and  _472
REMARK  192  A    between atoms: _472  and  _473
REMARK  193  A    between atoms: _478  and  _479
REMARK  194  A    between atoms: _481  and  _483
REMARK  195  A    between atoms: _483  and  _484
REMARK  196  A    between atoms: _483  and  _486
REMARK  197  A    between atoms: _486  and  _487
REMARK  198  A    between atoms: _490  and  _492
REMARK  199  A    between atoms: _492  and  _493
REMARK  200  A    between atoms: _496  and  _498
REMARK  201  A    between atoms: _498  and  _499
REMARK  202  A    between atoms: _498  and  _501
REMARK  203  A    between atoms: _501  and  _502
REMARK  204  A    between atoms: _502  and  _503
REMARK  205  A    between atoms: _508  and  _510
REMARK  206  A    between atoms: _510  and  _511
REMARK  207  A    between atoms: _510  and  _513
REMARK  208  A    between atoms: _513  and  _514
REMARK                            x       y       z     vdW  Elec       q    Type
REMARK                         _______ _______ _______ _____ _____    ______ ____
ROOT
ATOM      1  O   HOH     1      48.231 -23.715  -6.125  0.00  0.00    +0.000 OA
ENDROOT
TORSDOF 0
REMARK  Name = ../refined-set-2016/3v7t/3v7t_pocket.pdb
REMARK  208 active torsions:
REMARK  status: ('A' for Active; 'I' for Inactive)
REMARK    1  A    between atoms: _1  and  _5
REMARK    2  A    between atoms: _5  and  _6
REMARK    3  A    between atoms: _5  and  _8
REMARK    4  A    between atoms: _8  and  _9
REMARK    5  A    between atoms: _12  and  _14
REMARK    6  A    between atoms: _14  and  _15
REMARK    7  A    between atoms: _14  and  _17
REMARK    8  A    between atoms: _20  and  _22
REMARK    9  A    between atoms: _22  and  _23
REMARK   10  A    between atoms: _22  and  _25
REMARK   11  A    between atoms: _25  and  _26
REMARK   12  A    between atoms: _32  and  _34
REMARK   13  A    between atoms: _34  and  _35
REMARK   14  A    between atoms: _34  and  _37
REMARK   15  A    between atoms: _37  and  _38
REMARK   16  A    between atoms: _38  and  _56
REMARK   17  A    between atoms: _39  and  _41
REMARK   18  A    between atoms: _41  and  _42
REMARK   19  A    between atoms: _41  and  _44
REMARK   20  A    between atoms: _44  and  _45
REMARK   21  A    between atoms: _50  and  _52
REMARK   22  A    between atoms: _52  and  _53
REMARK   23  A    between atoms: _52  and  _55
REMARK   24  A    between atoms: _55  and  _56
REMARK   25  A    between atoms: _57  and  _59
REMARK   26  A    between atoms: _59  and  _60
REMARK   27  A    between atoms: _59  and  _62
REMARK   28  A    between atoms: _62  and  _63
REMARK   29  A    between atoms: _66  and  _68
REMARK   30  A    between atoms: _68  and  _69
REMARK   31  A    between atoms: _72  and  _74
REMARK   32  A    between atoms: _74  and  _75
REMARK   33  A    between atoms: _74  and  _77
REMARK   34  A    between atoms: _77  and  _78
REMARK   35  A    between atoms: _78  and  _79
REMARK   36  A    between atoms: _84  and  _86
REMARK   37  A    between atoms: _86  and  _87
REMARK   38  A    between atoms: _86  and  _89
REMARK   39  A    between atoms: _89  and  _90
REMARK   40  A    between atoms: _93  and  _95
REMARK   41  A    between atoms: _95  and  _96
REMARK   42  A    between atoms: _95  and  _98
REMARK   43  A    between atoms: _98  and  _99
REMARK   44  A    between atoms: _102  and  _104
REMARK   45  A    between atoms: _104  and  _105
REMARK   46  A    between atoms: _104  and  _107
REMARK   47  A    between atoms: _110  and  _112
REMARK   48  A    between atoms: _112  and  _113
REMARK   49  A    between atoms: _112  and  _115
REMARK   50  A    between atoms: _115  and  _116
REMARK   51  A    between atoms: _119  and  _121
REMARK   52  A    between atoms: _121  and  _122
REMARK   53  A    between atoms: _121  and  _124
REMARK   54  A    between atoms: _124  and  _125
REMARK   55  A    between atoms: _130  and  _132
REMARK   56  A    between atoms: _132  and  _133
REMARK   57  A    between atoms: _132  and  _135
REMARK   58  A    between atoms: _135  and  _136
REMARK   59  A    between atoms: _139  and  _141
REMARK   60  A    between atoms: _141  and  _142
REMARK   61  A    between atoms: _141  and  _144
REMARK   62  A    between atoms: _144  and  _145
REMARK   63  A    between atoms: _150  and  _151
REMARK   64  A    between atoms: _153  and  _155
REMARK   65  A    between atoms: _155  and  _156
REMARK   66  A    between atoms: _159  and  _161
REMARK   67  A    between atoms: _161  and  _162
REMARK   68  A    between atoms: _161  and  _164
REMARK   69  A    between atoms: _164  and  _165
REMARK   70  A    between atoms: _168  and  _170
REMARK   71  A    between atoms: _170  and  _171
REMARK   72  A    between atoms: _170  and  _173
REMARK   73  A    between atoms: _173  and  _174
REMARK   74  A    between atoms: _177  and  _179
REMARK   75  A    between atoms: _179  and  _180
REMARK   76  A    between atoms: _183  and  _185
REMARK   77  A    between atoms: _185  and  _186
REMARK   78  A    between atoms: _188  and  _190
REMARK   79  A    between atoms: _190  and  _191
REMARK   80  A    between atoms: _190  and  _193
REMARK   81  A    between atoms: _193  and  _194
REMARK   82  A    between atoms: _199  and  _201
REMARK   83  A    between atoms: _201  and  _202
REMARK   84  A    between atoms: _201  and  _204
REMARK   85  A    between atoms: _204  and  _205
REMARK   86  A    between atoms: _205  and  _206
REMARK   87  A    between atoms: _206  and  _207
REMARK   88  A    between atoms: _216  and  _218
REMARK   89  A    between atoms: _218  and  _219
REMARK   90  A    between atoms: _218  and  _221
REMARK   91  A    between atoms: _221  and  _222
REMARK   92  A    between atoms: _225  and  _227
REMARK   93  A    between atoms: _227  and  _228
REMARK   94  A    between atoms: _227  and  _230
REMARK   95  A    between atoms: _230  and  _231
REMARK   96  A    between atoms: _233  and  _235
REMARK   97  A    between atoms: _235  and  _236
REMARK   98  A    between atoms: _235  and  _238
REMARK   99  A    between atoms: _238  and  _239
REMARK  100  A    between atoms: _239  and  _350
REMARK  101  A    between atoms: _240  and  _242
REMARK  102  A    between atoms: _242  and  _243
REMARK  103  A    between atoms: _242  and  _245
REMARK  104  A    between atoms: _245  and  _246
REMARK  105  A    between atoms: _246  and  _247
REMARK  106  A    between atoms: _252  and  _254
REMARK  107  A    between atoms: _254  and  _255
REMARK  108  A    between atoms: _257  and  _259
REMARK  109  A    between atoms: _259  and  _260
REMARK  110  A    between atoms: _259  and  _262
REMARK  111  A    between atoms: _262  and  _263
REMARK  112  A    between atoms: _266  and  _268
REMARK  113  A    between atoms: _268  and  _269
REMARK  114  A    between atoms: _268  and  _271
REMARK  115  A    between atoms: _271  and  _272
REMARK  116  A    between atoms: _274  and  _276
REMARK  117  A    between atoms: _276  and  _277
REMARK  118  A    between atoms: _279  and  _281
REMARK  119  A    between atoms: _281  and  _282
REMARK  120  A    between atoms: _284  and  _286
REMARK  121  A    between atoms: _286  and  _287
REMARK  122  A    between atoms: _286  and  _289
REMARK  123  A    between atoms: _292  and  _294
REMARK  124  A    between atoms: _294  and  _295
REMARK  125  A    between atoms: _294  and  _297
REMARK  126  A    between atoms: _300  and  _302
REMARK  127  A    between atoms: _302  and  _303
REMARK  128  A    between atoms: _302  and  _305
REMARK  129  A    between atoms: _305  and  _306
REMARK  130  A    between atoms: _308  and  _310
REMARK  131  A    between atoms: _310  and  _311
REMARK  132  A    between atoms: _310  and  _313
REMARK  133  A    between atoms: _313  and  _314
REMARK  134  A    between atoms: _324  and  _326
REMARK  135  A    between atoms: _326  and  _327
REMARK  136  A    between atoms: _329  and  _331
REMARK  137  A    between atoms: _331  and  _332
REMARK  138  A    between atoms: _331  and  _334
REMARK  139  A    between atoms: _334  and  _335
REMARK  140  A    between atoms: _335  and  _336
REMARK  141  A    between atoms: _339  and  _341
REMARK  142  A    between atoms: _341  and  _342
REMARK  143  A    between atoms: _344  and  _346
REMARK  144  A    between atoms: _346  and  _347
REMARK  145  A    between atoms: _346  and  _349
REMARK  146  A    between atoms: _349  and  _350
REMARK  147  A    between atoms: _351  and  _353
REMARK  148  A    between atoms: _353  and  _354
REMARK  149  A    between atoms: _357  and  _359
REMARK  150  A    between atoms: _359  and  _360
REMARK  151  A    between atoms: _359  and  _362
REMARK  152  A    between atoms: _362  and  _363
REMARK  153  A    between atoms: _363  and  _364
REMARK  154  A    between atoms: _369  and  _371
REMARK  155  A    between atoms: _371  and  _372
REMARK  156  A    between atoms: _371  and  _374
REMARK  157  A    between atoms: _374  and  _375
REMARK  158  A    between atoms: _375  and  _376
REMARK  159  A    between atoms: _376  and  _377
REMARK  160  A    between atoms: _387  and  _388
REMARK  161  A    between atoms: _393  and  _395
REMARK  162  A    between atoms: _395  and  _396
REMARK  163  A    between atoms: _398  and  _400
REMARK  164  A    between atoms: _400  and  _401
REMARK  165  A    between atoms: _400  and  _403
REMARK  166  A    between atoms: _403  and  _404
REMARK  167  A    between atoms: _407  and  _409
REMARK  168  A    between atoms: _409  and  _410
REMARK  169  A    between atoms: _409  and  _412
REMARK  170  A    between atoms: _412  and  _413
REMARK  171  A    between atoms: _418  and  _419
REMARK  172  A    between atoms: _423  and  _424
REMARK  173  A    between atoms: _427  and  _428
REMARK  174  A    between atoms: _433  and  _435
REMARK  175  A    between atoms: _435  and  _436
REMARK  176  A    between atoms: _435  and  _438
REMARK  177  A    between atoms: _438  and  _439
REMARK  178  A    between atoms: _442  and  _444
REMARK  179  A    between atoms: _444  and  _445
REMARK  180  A    between atoms: _444  and  _447
REMARK  181  A    between atoms: _447  and  _448
REMARK  182  A    between atoms: _448  and  _449
REMARK  183  A    between atoms: _449  and  _450
REMARK  184  A    between atoms: _450  and  _451
REMARK  185  A    between atoms: _455  and  _457
REMARK  186  A    between atoms: _457  and  _458
REMARK  187  A    between atoms: _457  and  _460
REMARK  188  A    between atoms: _460  and  _461
REMARK  189  A    between atoms: _467  and  _469
REMARK  190  A    between atoms: _469  and  _470
REMARK  191  A    between atoms: _469  and  _472
REMARK  192  A    between atoms: _472  and  _473
REMARK  193  A    between atoms: _478  and  _479
REMARK  194  A    between atoms: _481  and  _483
REMARK  195  A    between atoms: _483  and  _484
REMARK  196  A    between atoms: _483  and  _486
REMARK  197  A    between atoms: _486  and  _487
REMARK  198  A    between atoms: _490  and  _492
REMARK  199  A    between atoms: _492  and  _493
REMARK  200  A    between atoms: _496  and  _498
REMARK  201  A    between atoms: _498  and  _499
REMARK  202  A    between atoms: _498  and  _501
REMARK  203  A    between atoms: _501  and  _502
REMARK  204  A    between atoms: _502  and  _503
REMARK  205  A    between atoms: _508  and  _510
REMARK  206  A    between atoms: _510  and  _511
REMARK  207  A    between atoms: _510  and  _513
REMARK  208  A    between atoms: _513  and  _514
REMARK                            x       y       z     vdW  Elec       q    Type
REMARK                         _______ _______ _______ _____ _____    ______ ____
ROOT
ATOM      1  O   HOH     1      50.809  -9.004 -12.693  0.00  0.00    +0.000 OA
ENDROOT
TORSDOF 0
REMARK  Name = ../refined-set-2016/3v7t/3v7t_pocket.pdb
REMARK  208 active torsions:
REMARK  status: ('A' for Active; 'I' for Inactive)
REMARK    1  A    between atoms: _1  and  _5
REMARK    2  A    between atoms: _5  and  _6
REMARK    3  A    between atoms: _5  and  _8
REMARK    4  A    between atoms: _8  and  _9
REMARK    5  A    between atoms: _12  and  _14
REMARK    6  A    between atoms: _14  and  _15
REMARK    7  A    between atoms: _14  and  _17
REMARK    8  A    between atoms: _20  and  _22
REMARK    9  A    between atoms: _22  and  _23
REMARK   10  A    between atoms: _22  and  _25
REMARK   11  A    between atoms: _25  and  _26
REMARK   12  A    between atoms: _32  and  _34
REMARK   13  A    between atoms: _34  and  _35
REMARK   14  A    between atoms: _34  and  _37
REMARK   15  A    between atoms: _37  and  _38
REMARK   16  A    between atoms: _38  and  _56
REMARK   17  A    between atoms: _39  and  _41
REMARK   18  A    between atoms: _41  and  _42
REMARK   19  A    between atoms: _41  and  _44
REMARK   20  A    between atoms: _44  and  _45
REMARK   21  A    between atoms: _50  and  _52
REMARK   22  A    between atoms: _52  and  _53
REMARK   23  A    between atoms: _52  and  _55
REMARK   24  A    between atoms: _55  and  _56
REMARK   25  A    between atoms: _57  and  _59
REMARK   26  A    between atoms: _59  and  _60
REMARK   27  A    between atoms: _59  and  _62
REMARK   28  A    between atoms: _62  and  _63
REMARK   29  A    between atoms: _66  and  _68
REMARK   30  A    between atoms: _68  and  _69
REMARK   31  A    between atoms: _72  and  _74
REMARK   32  A    between atoms: _74  and  _75
REMARK   33  A    between atoms: _74  and  _77
REMARK   34  A    between atoms: _77  and  _78
REMARK   35  A    between atoms: _78  and  _79
REMARK   36  A    between atoms: _84  and  _86
REMARK   37  A    between atoms: _86  and  _87
REMARK   38  A    between atoms: _86  and  _89
REMARK   39  A    between atoms: _89  and  _90
REMARK   40  A    between atoms: _93  and  _95
REMARK   41  A    between atoms: _95  and  _96
REMARK   42  A    between atoms: _95  and  _98
REMARK   43  A    between atoms: _98  and  _99
REMARK   44  A    between atoms: _102  and  _104
REMARK   45  A    between atoms: _104  and  _105
REMARK   46  A    between atoms: _104  and  _107
REMARK   47  A    between atoms: _110  and  _112
REMARK   48  A    between atoms: _112  and  _113
REMARK   49  A    between atoms: _112  and  _115
REMARK   50  A    between atoms: _115  and  _116
REMARK   51  A    between atoms: _119  and  _121
REMARK   52  A    between atoms: _121  and  _122
REMARK   53  A    between atoms: _121  and  _124
REMARK   54  A    between atoms: _124  and  _125
REMARK   55  A    between atoms: _130  and  _132
REMARK   56  A    between atoms: _132  and  _133
REMARK   57  A    between atoms: _132  and  _135
REMARK   58  A    between atoms: _135  and  _136
REMARK   59  A    between atoms: _139  and  _141
REMARK   60  A    between atoms: _141  and  _142
REMARK   61  A    between atoms: _141  and  _144
REMARK   62  A    between atoms: _144  and  _145
REMARK   63  A    between atoms: _150  and  _151
REMARK   64  A    between atoms: _153  and  _155
REMARK   65  A    between atoms: _155  and  _156
REMARK   66  A    between atoms: _159  and  _161
REMARK   67  A    between atoms: _161  and  _162
REMARK   68  A    between atoms: _161  and  _164
REMARK   69  A    between atoms: _164  and  _165
REMARK   70  A    between atoms: _168  and  _170
REMARK   71  A    between atoms: _170  and  _171
REMARK   72  A    between atoms: _170  and  _173
REMARK   73  A    between atoms: _173  and  _174
REMARK   74  A    between atoms: _177  and  _179
REMARK   75  A    between atoms: _179  and  _180
REMARK   76  A    between atoms: _183  and  _185
REMARK   77  A    between atoms: _185  and  _186
REMARK   78  A    between atoms: _188  and  _190
REMARK   79  A    between atoms: _190  and  _191
REMARK   80  A    between atoms: _190  and  _193
REMARK   81  A    between atoms: _193  and  _194
REMARK   82  A    between atoms: _199  and  _201
REMARK   83  A    between atoms: _201  and  _202
REMARK   84  A    between atoms: _201  and  _204
REMARK   85  A    between atoms: _204  and  _205
REMARK   86  A    between atoms: _205  and  _206
REMARK   87  A    between atoms: _206  and  _207
REMARK   88  A    between atoms: _216  and  _218
REMARK   89  A    between atoms: _218  and  _219
REMARK   90  A    between atoms: _218  and  _221
REMARK   91  A    between atoms: _221  and  _222
REMARK   92  A    between atoms: _225  and  _227
REMARK   93  A    between atoms: _227  and  _228
REMARK   94  A    between atoms: _227  and  _230
REMARK   95  A    between atoms: _230  and  _231
REMARK   96  A    between atoms: _233  and  _235
REMARK   97  A    between atoms: _235  and  _236
REMARK   98  A    between atoms: _235  and  _238
REMARK   99  A    between atoms: _238  and  _239
REMARK  100  A    between atoms: _239  and  _350
REMARK  101  A    between atoms: _240  and  _242
REMARK  102  A    between atoms: _242  and  _243
REMARK  103  A    between atoms: _242  and  _245
REMARK  104  A    between atoms: _245  and  _246
REMARK  105  A    between atoms: _246  and  _247
REMARK  106  A    between atoms: _252  and  _254
REMARK  107  A    between atoms: _254  and  _255
REMARK  108  A    between atoms: _257  and  _259
REMARK  109  A    between atoms: _259  and  _260
REMARK  110  A    between atoms: _259  and  _262
REMARK  111  A    between atoms: _262  and  _263
REMARK  112  A    between atoms: _266  and  _268
REMARK  113  A    between atoms: _268  and  _269
REMARK  114  A    between atoms: _268  and  _271
REMARK  115  A    between atoms: _271  and  _272
REMARK  116  A    between atoms: _274  and  _276
REMARK  117  A    between atoms: _276  and  _277
REMARK  118  A    between atoms: _279  and  _281
REMARK  119  A    between atoms: _281  and  _282
REMARK  120  A    between atoms: _284  and  _286
REMARK  121  A    between atoms: _286  and  _287
REMARK  122  A    between atoms: _286  and  _289
REMARK  123  A    between atoms: _292  and  _294
REMARK  124  A    between atoms: _294  and  _295
REMARK  125  A    between atoms: _294  and  _297
REMARK  126  A    between atoms: _300  and  _302
REMARK  127  A    between atoms: _302  and  _303
REMARK  128  A    between atoms: _302  and  _305
REMARK  129  A    between atoms: _305  and  _306
REMARK  130  A    between atoms: _308  and  _310
REMARK  131  A    between atoms: _310  and  _311
REMARK  132  A    between atoms: _310  and  _313
REMARK  133  A    between atoms: _313  and  _314
REMARK  134  A    between atoms: _324  and  _326
REMARK  135  A    between atoms: _326  and  _327
REMARK  136  A    between atoms: _329  and  _331
REMARK  137  A    between atoms: _331  and  _332
REMARK  138  A    between atoms: _331  and  _334
REMARK  139  A    between atoms: _334  and  _335
REMARK  140  A    between atoms: _335  and  _336
REMARK  141  A    between atoms: _339  and  _341
REMARK  142  A    between atoms: _341  and  _342
REMARK  143  A    between atoms: _344  and  _346
REMARK  144  A    between atoms: _346  and  _347
REMARK  145  A    between atoms: _346  and  _349
REMARK  146  A    between atoms: _349  and  _350
REMARK  147  A    between atoms: _351  and  _353
REMARK  148  A    between atoms: _353  and  _354
REMARK  149  A    between atoms: _357  and  _359
REMARK  150  A    between atoms: _359  and  _360
REMARK  151  A    between atoms: _359  and  _362
REMARK  152  A    between atoms: _362  and  _363
REMARK  153  A    between atoms: _363  and  _364
REMARK  154  A    between atoms: _369  and  _371
REMARK  155  A    between atoms: _371  and  _372
REMARK  156  A    between atoms: _371  and  _374
REMARK  157  A    between atoms: _374  and  _375
REMARK  158  A    between atoms: _375  and  _376
REMARK  159  A    between atoms: _376  and  _377
REMARK  160  A    between atoms: _387  and  _388
REMARK  161  A    between atoms: _393  and  _395
REMARK  162  A    between atoms: _395  and  _396
REMARK  163  A    between atoms: _398  and  _400
REMARK  164  A    between atoms: _400  and  _401
REMARK  165  A    between atoms: _400  and  _403
REMARK  166  A    between atoms: _403  and  _404
REMARK  167  A    between atoms: _407  and  _409
REMARK  168  A    between atoms: _409  and  _410
REMARK  169  A    between atoms: _409  and  _412
REMARK  170  A    between atoms: _412  and  _413
REMARK  171  A    between atoms: _418  and  _419
REMARK  172  A    between atoms: _423  and  _424
REMARK  173  A    between atoms: _427  and  _428
REMARK  174  A    between atoms: _433  and  _435
REMARK  175  A    between atoms: _435  and  _436
REMARK  176  A    between atoms: _435  and  _438
REMARK  177  A    between atoms: _438  and  _439
REMARK  178  A    between atoms: _442  and  _444
REMARK  179  A    between atoms: _444  and  _445
REMARK  180  A    between atoms: _444  and  _447
REMARK  181  A    between atoms: _447  and  _448
REMARK  182  A    between atoms: _448  and  _449
REMARK  183  A    between atoms: _449  and  _450
REMARK  184  A    between atoms: _450  and  _451
REMARK  185  A    between atoms: _455  and  _457
REMARK  186  A    between atoms: _457  and  _458
REMARK  187  A    between atoms: _457  and  _460
REMARK  188  A    between atoms: _460  and  _461
REMARK  189  A    between atoms: _467  and  _469
REMARK  190  A    between atoms: _469  and  _470
REMARK  191  A    between atoms: _469  and  _472
REMARK  192  A    between atoms: _472  and  _473
REMARK  193  A    between atoms: _478  and  _479
REMARK  194  A    between atoms: _481  and  _483
REMARK  195  A    between atoms: _483  and  _484
REMARK  196  A    between atoms: _483  and  _486
REMARK  197  A    between atoms: _486  and  _487
REMARK  198  A    between atoms: _490  and  _492
REMARK  199  A    between atoms: _492  and  _493
REMARK  200  A    between atoms: _496  and  _498
REMARK  201  A    between atoms: _498  and  _499
REMARK  202  A    between atoms: _498  and  _501
REMARK  203  A    between atoms: _501  and  _502
REMARK  204  A    between atoms: _502  and  _503
REMARK  205  A    between atoms: _508  and  _510
REMARK  206  A    between atoms: _510  and  _511
REMARK  207  A    between atoms: _510  and  _513
REMARK  208  A    between atoms: _513  and  _514
REMARK                            x       y       z     vdW  Elec       q    Type
REMARK                         _______ _______ _______ _____ _____    ______ ____
ROOT
ATOM      1  O   HOH     1      40.506 -15.252  -6.997  0.00  0.00    +0.000 OA
ENDROOT
TORSDOF 0
REMARK  Name = ../refined-set-2016/3v7t/3v7t_pocket.pdb
REMARK  208 active torsions:
REMARK  status: ('A' for Active; 'I' for Inactive)
REMARK    1  A    between atoms: _1  and  _5
REMARK    2  A    between atoms: _5  and  _6
REMARK    3  A    between atoms: _5  and  _8
REMARK    4  A    between atoms: _8  and  _9
REMARK    5  A    between atoms: _12  and  _14
REMARK    6  A    between atoms: _14  and  _15
REMARK    7  A    between atoms: _14  and  _17
REMARK    8  A    between atoms: _20  and  _22
REMARK    9  A    between atoms: _22  and  _23
REMARK   10  A    between atoms: _22  and  _25
REMARK   11  A    between atoms: _25  and  _26
REMARK   12  A    between atoms: _32  and  _34
REMARK   13  A    between atoms: _34  and  _35
REMARK   14  A    between atoms: _34  and  _37
REMARK   15  A    between atoms: _37  and  _38
REMARK   16  A    between atoms: _38  and  _56
REMARK   17  A    between atoms: _39  and  _41
REMARK   18  A    between atoms: _41  and  _42
REMARK   19  A    between atoms: _41  and  _44
REMARK   20  A    between atoms: _44  and  _45
REMARK   21  A    between atoms: _50  and  _52
REMARK   22  A    between atoms: _52  and  _53
REMARK   23  A    between atoms: _52  and  _55
REMARK   24  A    between atoms: _55  and  _56
REMARK   25  A    between atoms: _57  and  _59
REMARK   26  A    between atoms: _59  and  _60
REMARK   27  A    between atoms: _59  and  _62
REMARK   28  A    between atoms: _62  and  _63
REMARK   29  A    between atoms: _66  and  _68
REMARK   30  A    between atoms: _68  and  _69
REMARK   31  A    between atoms: _72  and  _74
REMARK   32  A    between atoms: _74  and  _75
REMARK   33  A    between atoms: _74  and  _77
REMARK   34  A    between atoms: _77  and  _78
REMARK   35  A    between atoms: _78  and  _79
REMARK   36  A    between atoms: _84  and  _86
REMARK   37  A    between atoms: _86  and  _87
REMARK   38  A    between atoms: _86  and  _89
REMARK   39  A    between atoms: _89  and  _90
REMARK   40  A    between atoms: _93  and  _95
REMARK   41  A    between atoms: _95  and  _96
REMARK   42  A    between atoms: _95  and  _98
REMARK   43  A    between atoms: _98  and  _99
REMARK   44  A    between atoms: _102  and  _104
REMARK   45  A    between atoms: _104  and  _105
REMARK   46  A    between atoms: _104  and  _107
REMARK   47  A    between atoms: _110  and  _112
REMARK   48  A    between atoms: _112  and  _113
REMARK   49  A    between atoms: _112  and  _115
REMARK   50  A    between atoms: _115  and  _116
REMARK   51  A    between atoms: _119  and  _121
REMARK   52  A    between atoms: _121  and  _122
REMARK   53  A    between atoms: _121  and  _124
REMARK   54  A    between atoms: _124  and  _125
REMARK   55  A    between atoms: _130  and  _132
REMARK   56  A    between atoms: _132  and  _133
REMARK   57  A    between atoms: _132  and  _135
REMARK   58  A    between atoms: _135  and  _136
REMARK   59  A    between atoms: _139  and  _141
REMARK   60  A    between atoms: _141  and  _142
REMARK   61  A    between atoms: _141  and  _144
REMARK   62  A    between atoms: _144  and  _145
REMARK   63  A    between atoms: _150  and  _151
REMARK   64  A    between atoms: _153  and  _155
REMARK   65  A    between atoms: _155  and  _156
REMARK   66  A    between atoms: _159  and  _161
REMARK   67  A    between atoms: _161  and  _162
REMARK   68  A    between atoms: _161  and  _164
REMARK   69  A    between atoms: _164  and  _165
REMARK   70  A    between atoms: _168  and  _170
REMARK   71  A    between atoms: _170  and  _171
REMARK   72  A    between atoms: _170  and  _173
REMARK   73  A    between atoms: _173  and  _174
REMARK   74  A    between atoms: _177  and  _179
REMARK   75  A    between atoms: _179  and  _180
REMARK   76  A    between atoms: _183  and  _185
REMARK   77  A    between atoms: _185  and  _186
REMARK   78  A    between atoms: _188  and  _190
REMARK   79  A    between atoms: _190  and  _191
REMARK   80  A    between atoms: _190  and  _193
REMARK   81  A    between atoms: _193  and  _194
REMARK   82  A    between atoms: _199  and  _201
REMARK   83  A    between atoms: _201  and  _202
REMARK   84  A    between atoms: _201  and  _204
REMARK   85  A    between atoms: _204  and  _205
REMARK   86  A    between atoms: _205  and  _206
REMARK   87  A    between atoms: _206  and  _207
REMARK   88  A    between atoms: _216  and  _218
REMARK   89  A    between atoms: _218  and  _219
REMARK   90  A    between atoms: _218  and  _221
REMARK   91  A    between atoms: _221  and  _222
REMARK   92  A    between atoms: _225  and  _227
REMARK   93  A    between atoms: _227  and  _228
REMARK   94  A    between atoms: _227  and  _230
REMARK   95  A    between atoms: _230  and  _231
REMARK   96  A    between atoms: _233  and  _235
REMARK   97  A    between atoms: _235  and  _236
REMARK   98  A    between atoms: _235  and  _238
REMARK   99  A    between atoms: _238  and  _239
REMARK  100  A    between atoms: _239  and  _350
REMARK  101  A    between atoms: _240  and  _242
REMARK  102  A    between atoms: _242  and  _243
REMARK  103  A    between atoms: _242  and  _245
REMARK  104  A    between atoms: _245  and  _246
REMARK  105  A    between atoms: _246  and  _247
REMARK  106  A    between atoms: _252  and  _254
REMARK  107  A    between atoms: _254  and  _255
REMARK  108  A    between atoms: _257  and  _259
REMARK  109  A    between atoms: _259  and  _260
REMARK  110  A    between atoms: _259  and  _262
REMARK  111  A    between atoms: _262  and  _263
REMARK  112  A    between atoms: _266  and  _268
REMARK  113  A    between atoms: _268  and  _269
REMARK  114  A    between atoms: _268  and  _271
REMARK  115  A    between atoms: _271  and  _272
REMARK  116  A    between atoms: _274  and  _276
REMARK  117  A    between atoms: _276  and  _277
REMARK  118  A    between atoms: _279  and  _281
REMARK  119  A    between atoms: _281  and  _282
REMARK  120  A    between atoms: _284  and  _286
REMARK  121  A    between atoms: _286  and  _287
REMARK  122  A    between atoms: _286  and  _289
REMARK  123  A    between atoms: _292  and  _294
REMARK  124  A    between atoms: _294  and  _295
REMARK  125  A    between atoms: _294  and  _297
REMARK  126  A    between atoms: _300  and  _302
REMARK  127  A    between atoms: _302  and  _303
REMARK  128  A    between atoms: _302  and  _305
REMARK  129  A    between atoms: _305  and  _306
REMARK  130  A    between atoms: _308  and  _310
REMARK  131  A    between atoms: _310  and  _311
REMARK  132  A    between atoms: _310  and  _313
REMARK  133  A    between atoms: _313  and  _314
REMARK  134  A    between atoms: _324  and  _326
REMARK  135  A    between atoms: _326  and  _327
REMARK  136  A    between atoms: _329  and  _331
REMARK  137  A    between atoms: _331  and  _332
REMARK  138  A    between atoms: _331  and  _334
REMARK  139  A    between atoms: _334  and  _335
REMARK  140  A    between atoms: _335  and  _336
REMARK  141  A    between atoms: _339  and  _341
REMARK  142  A    between atoms: _341  and  _342
REMARK  143  A    between atoms: _344  and  _346
REMARK  144  A    between atoms: _346  and  _347
REMARK  145  A    between atoms: _346  and  _349
REMARK  146  A    between atoms: _349  and  _350
REMARK  147  A    between atoms: _351  and  _353
REMARK  148  A    between atoms: _353  and  _354
REMARK  149  A    between atoms: _357  and  _359
REMARK  150  A    between atoms: _359  and  _360
REMARK  151  A    between atoms: _359  and  _362
REMARK  152  A    between atoms: _362  and  _363
REMARK  153  A    between atoms: _363  and  _364
REMARK  154  A    between atoms: _369  and  _371
REMARK  155  A    between atoms: _371  and  _372
REMARK  156  A    between atoms: _371  and  _374
REMARK  157  A    between atoms: _374  and  _375
REMARK  158  A    between atoms: _375  and  _376
REMARK  159  A    between atoms: _376  and  _377
REMARK  160  A    between atoms: _387  and  _388
REMARK  161  A    between atoms: _393  and  _395
REMARK  162  A    between atoms: _395  and  _396
REMARK  163  A    between atoms: _398  and  _400
REMARK  164  A    between atoms: _400  and  _401
REMARK  165  A    between atoms: _400  and  _403
REMARK  166  A    between atoms: _403  and  _404
REMARK  167  A    between atoms: _407  and  _409
REMARK  168  A    between atoms: _409  and  _410
REMARK  169  A    between atoms: _409  and  _412
REMARK  170  A    between atoms: _412  and  _413
REMARK  171  A    between atoms: _418  and  _419
REMARK  172  A    between atoms: _423  and  _424
REMARK  173  A    between atoms: _427  and  _428
REMARK  174  A    between atoms: _433  and  _435
REMARK  175  A    between atoms: _435  and  _436
REMARK  176  A    between atoms: _435  and  _438
REMARK  177  A    between atoms: _438  and  _439
REMARK  178  A    between atoms: _442  and  _444
REMARK  179  A    between atoms: _444  and  _445
REMARK  180  A    between atoms: _444  and  _447
REMARK  181  A    between atoms: _447  and  _448
REMARK  182  A    between atoms: _448  and  _449
REMARK  183  A    between atoms: _449  and  _450
REMARK  184  A    between atoms: _450  and  _451
REMARK  185  A    between atoms: _455  and  _457
REMARK  186  A    between atoms: _457  and  _458
REMARK  187  A    between atoms: _457  and  _460
REMARK  188  A    between atoms: _460  and  _461
REMARK  189  A    between atoms: _467  and  _469
REMARK  190  A    between atoms: _469  and  _470
REMARK  191  A    between atoms: _469  and  _472
REMARK  192  A    between atoms: _472  and  _473
REMARK  193  A    between atoms: _478  and  _479
REMARK  194  A    between atoms: _481  and  _483
REMARK  195  A    between atoms: _483  and  _484
REMARK  196  A    between atoms: _483  and  _486
REMARK  197  A    between atoms: _486  and  _487
REMARK  198  A    between atoms: _490  and  _492
REMARK  199  A    between atoms: _492  and  _493
REMARK  200  A    between atoms: _496  and  _498
REMARK  201  A    between atoms: _498  and  _499
REMARK  202  A    between atoms: _498  and  _501
REMARK  203  A    between atoms: _501  and  _502
REMARK  204  A    between atoms: _502  and  _503
REMARK  205  A    between atoms: _508  and  _510
REMARK  206  A    between atoms: _510  and  _511
REMARK  207  A    between atoms: _510  and  _513
REMARK  208  A    between atoms: _513  and  _514
REMARK                            x       y       z     vdW  Elec       q    Type
REMARK                         _______ _______ _______ _____ _____    ______ ____
ROOT
ATOM      1  O   HOH     1      45.847 -11.182  -8.248  0.00  0.00    +0.000 OA
ENDROOT
TORSDOF 0
REMARK  Name = ../refined-set-2016/3v7t/3v7t_pocket.pdb
REMARK  208 active torsions:
REMARK  status: ('A' for Active; 'I' for Inactive)
REMARK    1  A    between atoms: _1  and  _5
REMARK    2  A    between atoms: _5  and  _6
REMARK    3  A    between atoms: _5  and  _8
REMARK    4  A    between atoms: _8  and  _9
REMARK    5  A    between atoms: _12  and  _14
REMARK    6  A    between atoms: _14  and  _15
REMARK    7  A    between atoms: _14  and  _17
REMARK    8  A    between atoms: _20  and  _22
REMARK    9  A    between atoms: _22  and  _23
REMARK   10  A    between atoms: _22  and  _25
REMARK   11  A    between atoms: _25  and  _26
REMARK   12  A    between atoms: _32  and  _34
REMARK   13  A    between atoms: _34  and  _35
REMARK   14  A    between atoms: _34  and  _37
REMARK   15  A    between atoms: _37  and  _38
REMARK   16  A    between atoms: _38  and  _56
REMARK   17  A    between atoms: _39  and  _41
REMARK   18  A    between atoms: _41  and  _42
REMARK   19  A    between atoms: _41  and  _44
REMARK   20  A    between atoms: _44  and  _45
REMARK   21  A    between atoms: _50  and  _52
REMARK   22  A    between atoms: _52  and  _53
REMARK   23  A    between atoms: _52  and  _55
REMARK   24  A    between atoms: _55  and  _56
REMARK   25  A    between atoms: _57  and  _59
REMARK   26  A    between atoms: _59  and  _60
REMARK   27  A    between atoms: _59  and  _62
REMARK   28  A    between atoms: _62  and  _63
REMARK   29  A    between atoms: _66  and  _68
REMARK   30  A    between atoms: _68  and  _69
REMARK   31  A    between atoms: _72  and  _74
REMARK   32  A    between atoms: _74  and  _75
REMARK   33  A    between atoms: _74  and  _77
REMARK   34  A    between atoms: _77  and  _78
REMARK   35  A    between atoms: _78  and  _79
REMARK   36  A    between atoms: _84  and  _86
REMARK   37  A    between atoms: _86  and  _87
REMARK   38  A    between atoms: _86  and  _89
REMARK   39  A    between atoms: _89  and  _90
REMARK   40  A    between atoms: _93  and  _95
REMARK   41  A    between atoms: _95  and  _96
REMARK   42  A    between atoms: _95  and  _98
REMARK   43  A    between atoms: _98  and  _99
REMARK   44  A    between atoms: _102  and  _104
REMARK   45  A    between atoms: _104  and  _105
REMARK   46  A    between atoms: _104  and  _107
REMARK   47  A    between atoms: _110  and  _112
REMARK   48  A    between atoms: _112  and  _113
REMARK   49  A    between atoms: _112  and  _115
REMARK   50  A    between atoms: _115  and  _116
REMARK   51  A    between atoms: _119  and  _121
REMARK   52  A    between atoms: _121  and  _122
REMARK   53  A    between atoms: _121  and  _124
REMARK   54  A    between atoms: _124  and  _125
REMARK   55  A    between atoms: _130  and  _132
REMARK   56  A    between atoms: _132  and  _133
REMARK   57  A    between atoms: _132  and  _135
REMARK   58  A    between atoms: _135  and  _136
REMARK   59  A    between atoms: _139  and  _141
REMARK   60  A    between atoms: _141  and  _142
REMARK   61  A    between atoms: _141  and  _144
REMARK   62  A    between atoms: _144  and  _145
REMARK   63  A    between atoms: _150  and  _151
REMARK   64  A    between atoms: _153  and  _155
REMARK   65  A    between atoms: _155  and  _156
REMARK   66  A    between atoms: _159  and  _161
REMARK   67  A    between atoms: _161  and  _162
REMARK   68  A    between atoms: _161  and  _164
REMARK   69  A    between atoms: _164  and  _165
REMARK   70  A    between atoms: _168  and  _170
REMARK   71  A    between atoms: _170  and  _171
REMARK   72  A    between atoms: _170  and  _173
REMARK   73  A    between atoms: _173  and  _174
REMARK   74  A    between atoms: _177  and  _179
REMARK   75  A    between atoms: _179  and  _180
REMARK   76  A    between atoms: _183  and  _185
REMARK   77  A    between atoms: _185  and  _186
REMARK   78  A    between atoms: _188  and  _190
REMARK   79  A    between atoms: _190  and  _191
REMARK   80  A    between atoms: _190  and  _193
REMARK   81  A    between atoms: _193  and  _194
REMARK   82  A    between atoms: _199  and  _201
REMARK   83  A    between atoms: _201  and  _202
REMARK   84  A    between atoms: _201  and  _204
REMARK   85  A    between atoms: _204  and  _205
REMARK   86  A    between atoms: _205  and  _206
REMARK   87  A    between atoms: _206  and  _207
REMARK   88  A    between atoms: _216  and  _218
REMARK   89  A    between atoms: _218  and  _219
REMARK   90  A    between atoms: _218  and  _221
REMARK   91  A    between atoms: _221  and  _222
REMARK   92  A    between atoms: _225  and  _227
REMARK   93  A    between atoms: _227  and  _228
REMARK   94  A    between atoms: _227  and  _230
REMARK   95  A    between atoms: _230  and  _231
REMARK   96  A    between atoms: _233  and  _235
REMARK   97  A    between atoms: _235  and  _236
REMARK   98  A    between atoms: _235  and  _238
REMARK   99  A    between atoms: _238  and  _239
REMARK  100  A    between atoms: _239  and  _350
REMARK  101  A    between atoms: _240  and  _242
REMARK  102  A    between atoms: _242  and  _243
REMARK  103  A    between atoms: _242  and  _245
REMARK  104  A    between atoms: _245  and  _246
REMARK  105  A    between atoms: _246  and  _247
REMARK  106  A    between atoms: _252  and  _254
REMARK  107  A    between atoms: _254  and  _255
REMARK  108  A    between atoms: _257  and  _259
REMARK  109  A    between atoms: _259  and  _260
REMARK  110  A    between atoms: _259  and  _262
REMARK  111  A    between atoms: _262  and  _263
REMARK  112  A    between atoms: _266  and  _268
REMARK  113  A    between atoms: _268  and  _269
REMARK  114  A    between atoms: _268  and  _271
REMARK  115  A    between atoms: _271  and  _272
REMARK  116  A    between atoms: _274  and  _276
REMARK  117  A    between atoms: _276  and  _277
REMARK  118  A    between atoms: _279  and  _281
REMARK  119  A    between atoms: _281  and  _282
REMARK  120  A    between atoms: _284  and  _286
REMARK  121  A    between atoms: _286  and  _287
REMARK  122  A    between atoms: _286  and  _289
REMARK  123  A    between atoms: _292  and  _294
REMARK  124  A    between atoms: _294  and  _295
REMARK  125  A    between atoms: _294  and  _297
REMARK  126  A    between atoms: _300  and  _302
REMARK  127  A    between atoms: _302  and  _303
REMARK  128  A    between atoms: _302  and  _305
REMARK  129  A    between atoms: _305  and  _306
REMARK  130  A    between atoms: _308  and  _310
REMARK  131  A    between atoms: _310  and  _311
REMARK  132  A    between atoms: _310  and  _313
REMARK  133  A    between atoms: _313  and  _314
REMARK  134  A    between atoms: _324  and  _326
REMARK  135  A    between atoms: _326  and  _327
REMARK  136  A    between atoms: _329  and  _331
REMARK  137  A    between atoms: _331  and  _332
REMARK  138  A    between atoms: _331  and  _334
REMARK  139  A    between atoms: _334  and  _335
REMARK  140  A    between atoms: _335  and  _336
REMARK  141  A    between atoms: _339  and  _341
REMARK  142  A    between atoms: _341  and  _342
REMARK  143  A    between atoms: _344  and  _346
REMARK  144  A    between atoms: _346  and  _347
REMARK  145  A    between atoms: _346  and  _349
REMARK  146  A    between atoms: _349  and  _350
REMARK  147  A    between atoms: _351  and  _353
REMARK  148  A    between atoms: _353  and  _354
REMARK  149  A    between atoms: _357  and  _359
REMARK  150  A    between atoms: _359  and  _360
REMARK  151  A    between atoms: _359  and  _362
REMARK  152  A    between atoms: _362  and  _363
REMARK  153  A    between atoms: _363  and  _364
REMARK  154  A    between atoms: _369  and  _371
REMARK  155  A    between atoms: _371  and  _372
REMARK  156  A    between atoms: _371  and  _374
REMARK  157  A    between atoms: _374  and  _375
REMARK  158  A    between atoms: _375  and  _376
REMARK  159  A    between atoms: _376  and  _377
REMARK  160  A    between atoms: _387  and  _388
REMARK  161  A    between atoms: _393  and  _395
REMARK  162  A    between atoms: _395  and  _396
REMARK  163  A    between atoms: _398  and  _400
REMARK  164  A    between atoms: _400  and  _401
REMARK  165  A    between atoms: _400  and  _403
REMARK  166  A    between atoms: _403  and  _404
REMARK  167  A    between atoms: _407  and  _409
REMARK  168  A    between atoms: _409  and  _410
REMARK  169  A    between atoms: _409  and  _412
REMARK  170  A    between atoms: _412  and  _413
REMARK  171  A    between atoms: _418  and  _419
REMARK  172  A    between atoms: _423  and  _424
REMARK  173  A    between atoms: _427  and  _428
REMARK  174  A    between atoms: _433  and  _435
REMARK  175  A    between atoms: _435  and  _436
REMARK  176  A    between atoms: _435  and  _438
REMARK  177  A    between atoms: _438  and  _439
REMARK  178  A    between atoms: _442  and  _444
REMARK  179  A    between atoms: _444  and  _445
REMARK  180  A    between atoms: _444  and  _447
REMARK  181  A    between atoms: _447  and  _448
REMARK  182  A    between atoms: _448  and  _449
REMARK  183  A    between atoms: _449  and  _450
REMARK  184  A    between atoms: _450  and  _451
REMARK  185  A    between atoms: _455  and  _457
REMARK  186  A    between atoms: _457  and  _458
REMARK  187  A    between atoms: _457  and  _460
REMARK  188  A    between atoms: _460  and  _461
REMARK  189  A    between atoms: _467  and  _469
REMARK  190  A    between atoms: _469  and  _470
REMARK  191  A    between atoms: _469  and  _472
REMARK  192  A    between atoms: _472  and  _473
REMARK  193  A    between atoms: _478  and  _479
REMARK  194  A    between atoms: _481  and  _483
REMARK  195  A    between atoms: _483  and  _484
REMARK  196  A    between atoms: _483  and  _486
REMARK  197  A    between atoms: _486  and  _487
REMARK  198  A    between atoms: _490  and  _492
REMARK  199  A    between atoms: _492  and  _493
REMARK  200  A    between atoms: _496  and  _498
REMARK  201  A    between atoms: _498  and  _499
REMARK  202  A    between atoms: _498  and  _501
REMARK  203  A    between atoms: _501  and  _502
REMARK  204  A    between atoms: _502  and  _503
REMARK  205  A    between atoms: _508  and  _510
REMARK  206  A    between atoms: _510  and  _511
REMARK  207  A    between atoms: _510  and  _513
REMARK  208  A    between atoms: _513  and  _514
REMARK                            x       y       z     vdW  Elec       q    Type
REMARK                         _______ _______ _______ _____ _____    ______ ____
ROOT
ATOM      1  O   HOH     1      43.694 -17.854   4.048  0.00  0.00    +0.000 OA
ENDROOT
TORSDOF 0
REMARK  Name = ../refined-set-2016/3v7t/3v7t_pocket.pdb
REMARK  208 active torsions:
REMARK  status: ('A' for Active; 'I' for Inactive)
REMARK    1  A    between atoms: _1  and  _5
REMARK    2  A    between atoms: _5  and  _6
REMARK    3  A    between atoms: _5  and  _8
REMARK    4  A    between atoms: _8  and  _9
REMARK    5  A    between atoms: _12  and  _14
REMARK    6  A    between atoms: _14  and  _15
REMARK    7  A    between atoms: _14  and  _17
REMARK    8  A    between atoms: _20  and  _22
REMARK    9  A    between atoms: _22  and  _23
REMARK   10  A    between atoms: _22  and  _25
REMARK   11  A    between atoms: _25  and  _26
REMARK   12  A    between atoms: _32  and  _34
REMARK   13  A    between atoms: _34  and  _35
REMARK   14  A    between atoms: _34  and  _37
REMARK   15  A    between atoms: _37  and  _38
REMARK   16  A    between atoms: _38  and  _56
REMARK   17  A    between atoms: _39  and  _41
REMARK   18  A    between atoms: _41  and  _42
REMARK   19  A    between atoms: _41  and  _44
REMARK   20  A    between atoms: _44  and  _45
REMARK   21  A    between atoms: _50  and  _52
REMARK   22  A    between atoms: _52  and  _53
REMARK   23  A    between atoms: _52  and  _55
REMARK   24  A    between atoms: _55  and  _56
REMARK   25  A    between atoms: _57  and  _59
REMARK   26  A    between atoms: _59  and  _60
REMARK   27  A    between atoms: _59  and  _62
REMARK   28  A    between atoms: _62  and  _63
REMARK   29  A    between atoms: _66  and  _68
REMARK   30  A    between atoms: _68  and  _69
REMARK   31  A    between atoms: _72  and  _74
REMARK   32  A    between atoms: _74  and  _75
REMARK   33  A    between atoms: _74  and  _77
REMARK   34  A    between atoms: _77  and  _78
REMARK   35  A    between atoms: _78  and  _79
REMARK   36  A    between atoms: _84  and  _86
REMARK   37  A    between atoms: _86  and  _87
REMARK   38  A    between atoms: _86  and  _89
REMARK   39  A    between atoms: _89  and  _90
REMARK   40  A    between atoms: _93  and  _95
REMARK   41  A    between atoms: _95  and  _96
REMARK   42  A    between atoms: _95  and  _98
REMARK   43  A    between atoms: _98  and  _99
REMARK   44  A    between atoms: _102  and  _104
REMARK   45  A    between atoms: _104  and  _105
REMARK   46  A    between atoms: _104  and  _107
REMARK   47  A    between atoms: _110  and  _112
REMARK   48  A    between atoms: _112  and  _113
REMARK   49  A    between atoms: _112  and  _115
REMARK   50  A    between atoms: _115  and  _116
REMARK   51  A    between atoms: _119  and  _121
REMARK   52  A    between atoms: _121  and  _122
REMARK   53  A    between atoms: _121  and  _124
REMARK   54  A    between atoms: _124  and  _125
REMARK   55  A    between atoms: _130  and  _132
REMARK   56  A    between atoms: _132  and  _133
REMARK   57  A    between atoms: _132  and  _135
REMARK   58  A    between atoms: _135  and  _136
REMARK   59  A    between atoms: _139  and  _141
REMARK   60  A    between atoms: _141  and  _142
REMARK   61  A    between atoms: _141  and  _144
REMARK   62  A    between atoms: _144  and  _145
REMARK   63  A    between atoms: _150  and  _151
REMARK   64  A    between atoms: _153  and  _155
REMARK   65  A    between atoms: _155  and  _156
REMARK   66  A    between atoms: _159  and  _161
REMARK   67  A    between atoms: _161  and  _162
REMARK   68  A    between atoms: _161  and  _164
REMARK   69  A    between atoms: _164  and  _165
REMARK   70  A    between atoms: _168  and  _170
REMARK   71  A    between atoms: _170  and  _171
REMARK   72  A    between atoms: _170  and  _173
REMARK   73  A    between atoms: _173  and  _174
REMARK   74  A    between atoms: _177  and  _179
REMARK   75  A    between atoms: _179  and  _180
REMARK   76  A    between atoms: _183  and  _185
REMARK   77  A    between atoms: _185  and  _186
REMARK   78  A    between atoms: _188  and  _190
REMARK   79  A    between atoms: _190  and  _191
REMARK   80  A    between atoms: _190  and  _193
REMARK   81  A    between atoms: _193  and  _194
REMARK   82  A    between atoms: _199  and  _201
REMARK   83  A    between atoms: _201  and  _202
REMARK   84  A    between atoms: _201  and  _204
REMARK   85  A    between atoms: _204  and  _205
REMARK   86  A    between atoms: _205  and  _206
REMARK   87  A    between atoms: _206  and  _207
REMARK   88  A    between atoms: _216  and  _218
REMARK   89  A    between atoms: _218  and  _219
REMARK   90  A    between atoms: _218  and  _221
REMARK   91  A    between atoms: _221  and  _222
REMARK   92  A    between atoms: _225  and  _227
REMARK   93  A    between atoms: _227  and  _228
REMARK   94  A    between atoms: _227  and  _230
REMARK   95  A    between atoms: _230  and  _231
REMARK   96  A    between atoms: _233  and  _235
REMARK   97  A    between atoms: _235  and  _236
REMARK   98  A    between atoms: _235  and  _238
REMARK   99  A    between atoms: _238  and  _239
REMARK  100  A    between atoms: _239  and  _350
REMARK  101  A    between atoms: _240  and  _242
REMARK  102  A    between atoms: _242  and  _243
REMARK  103  A    between atoms: _242  and  _245
REMARK  104  A    between atoms: _245  and  _246
REMARK  105  A    between atoms: _246  and  _247
REMARK  106  A    between atoms: _252  and  _254
REMARK  107  A    between atoms: _254  and  _255
REMARK  108  A    between atoms: _257  and  _259
REMARK  109  A    between atoms: _259  and  _260
REMARK  110  A    between atoms: _259  and  _262
REMARK  111  A    between atoms: _262  and  _263
REMARK  112  A    between atoms: _266  and  _268
REMARK  113  A    between atoms: _268  and  _269
REMARK  114  A    between atoms: _268  and  _271
REMARK  115  A    between atoms: _271  and  _272
REMARK  116  A    between atoms: _274  and  _276
REMARK  117  A    between atoms: _276  and  _277
REMARK  118  A    between atoms: _279  and  _281
REMARK  119  A    between atoms: _281  and  _282
REMARK  120  A    between atoms: _284  and  _286
REMARK  121  A    between atoms: _286  and  _287
REMARK  122  A    between atoms: _286  and  _289
REMARK  123  A    between atoms: _292  and  _294
REMARK  124  A    between atoms: _294  and  _295
REMARK  125  A    between atoms: _294  and  _297
REMARK  126  A    between atoms: _300  and  _302
REMARK  127  A    between atoms: _302  and  _303
REMARK  128  A    between atoms: _302  and  _305
REMARK  129  A    between atoms: _305  and  _306
REMARK  130  A    between atoms: _308  and  _310
REMARK  131  A    between atoms: _310  and  _311
REMARK  132  A    between atoms: _310  and  _313
REMARK  133  A    between atoms: _313  and  _314
REMARK  134  A    between atoms: _324  and  _326
REMARK  135  A    between atoms: _326  and  _327
REMARK  136  A    between atoms: _329  and  _331
REMARK  137  A    between atoms: _331  and  _332
REMARK  138  A    between atoms: _331  and  _334
REMARK  139  A    between atoms: _334  and  _335
REMARK  140  A    between atoms: _335  and  _336
REMARK  141  A    between atoms: _339  and  _341
REMARK  142  A    between atoms: _341  and  _342
REMARK  143  A    between atoms: _344  and  _346
REMARK  144  A    between atoms: _346  and  _347
REMARK  145  A    between atoms: _346  and  _349
REMARK  146  A    between atoms: _349  and  _350
REMARK  147  A    between atoms: _351  and  _353
REMARK  148  A    between atoms: _353  and  _354
REMARK  149  A    between atoms: _357  and  _359
REMARK  150  A    between atoms: _359  and  _360
REMARK  151  A    between atoms: _359  and  _362
REMARK  152  A    between atoms: _362  and  _363
REMARK  153  A    between atoms: _363  and  _364
REMARK  154  A    between atoms: _369  and  _371
REMARK  155  A    between atoms: _371  and  _372
REMARK  156  A    between atoms: _371  and  _374
REMARK  157  A    between atoms: _374  and  _375
REMARK  158  A    between atoms: _375  and  _376
REMARK  159  A    between atoms: _376  and  _377
REMARK  160  A    between atoms: _387  and  _388
REMARK  161  A    between atoms: _393  and  _395
REMARK  162  A    between atoms: _395  and  _396
REMARK  163  A    between atoms: _398  and  _400
REMARK  164  A    between atoms: _400  and  _401
REMARK  165  A    between atoms: _400  and  _403
REMARK  166  A    between atoms: _403  and  _404
REMARK  167  A    between atoms: _407  and  _409
REMARK  168  A    between atoms: _409  and  _410
REMARK  169  A    between atoms: _409  and  _412
REMARK  170  A    between atoms: _412  and  _413
REMARK  171  A    between atoms: _418  and  _419
REMARK  172  A    between atoms: _423  and  _424
REMARK  173  A    between atoms: _427  and  _428
REMARK  174  A    between atoms: _433  and  _435
REMARK  175  A    between atoms: _435  and  _436
REMARK  176  A    between atoms: _435  and  _438
REMARK  177  A    between atoms: _438  and  _439
REMARK  178  A    between atoms: _442  and  _444
REMARK  179  A    between atoms: _444  and  _445
REMARK  180  A    between atoms: _444  and  _447
REMARK  181  A    between atoms: _447  and  _448
REMARK  182  A    between atoms: _448  and  _449
REMARK  183  A    between atoms: _449  and  _450
REMARK  184  A    between atoms: _450  and  _451
REMARK  185  A    between atoms: _455  and  _457
REMARK  186  A    between atoms: _457  and  _458
REMARK  187  A    between atoms: _457  and  _460
REMARK  188  A    between atoms: _460  and  _461
REMARK  189  A    between atoms: _467  and  _469
REMARK  190  A    between atoms: _469  and  _470
REMARK  191  A    between atoms: _469  and  _472
REMARK  192  A    between atoms: _472  and  _473
REMARK  193  A    between atoms: _478  and  _479
REMARK  194  A    between atoms: _481  and  _483
REMARK  195  A    between atoms: _483  and  _484
REMARK  196  A    between atoms: _483  and  _486
REMARK  197  A    between atoms: _486  and  _487
REMARK  198  A    between atoms: _490  and  _492
REMARK  199  A    between atoms: _492  and  _493
REMARK  200  A    between atoms: _496  and  _498
REMARK  201  A    between atoms: _498  and  _499
REMARK  202  A    between atoms: _498  and  _501
REMARK  203  A    between atoms: _501  and  _502
REMARK  204  A    between atoms: _502  and  _503
REMARK  205  A    between atoms: _508  and  _510
REMARK  206  A    between atoms: _510  and  _511
REMARK  207  A    between atoms: _510  and  _513
REMARK  208  A    between atoms: _513  and  _514
REMARK                            x       y       z     vdW  Elec       q    Type
REMARK                         _______ _______ _______ _____ _____    ______ ____
ROOT
ATOM      1  O   HOH     1      47.607 -15.937   1.779  0.00  0.00    +0.000 OA
ENDROOT
TORSDOF 0
REMARK  Name = ../refined-set-2016/3v7t/3v7t_pocket.pdb
REMARK  208 active torsions:
REMARK  status: ('A' for Active; 'I' for Inactive)
REMARK    1  A    between atoms: _1  and  _5
REMARK    2  A    between atoms: _5  and  _6
REMARK    3  A    between atoms: _5  and  _8
REMARK    4  A    between atoms: _8  and  _9
REMARK    5  A    between atoms: _12  and  _14
REMARK    6  A    between atoms: _14  and  _15
REMARK    7  A    between atoms: _14  and  _17
REMARK    8  A    between atoms: _20  and  _22
REMARK    9  A    between atoms: _22  and  _23
REMARK   10  A    between atoms: _22  and  _25
REMARK   11  A    between atoms: _25  and  _26
REMARK   12  A    between atoms: _32  and  _34
REMARK   13  A    between atoms: _34  and  _35
REMARK   14  A    between atoms: _34  and  _37
REMARK   15  A    between atoms: _37  and  _38
REMARK   16  A    between atoms: _38  and  _56
REMARK   17  A    between atoms: _39  and  _41
REMARK   18  A    between atoms: _41  and  _42
REMARK   19  A    between atoms: _41  and  _44
REMARK   20  A    between atoms: _44  and  _45
REMARK   21  A    between atoms: _50  and  _52
REMARK   22  A    between atoms: _52  and  _53
REMARK   23  A    between atoms: _52  and  _55
REMARK   24  A    between atoms: _55  and  _56
REMARK   25  A    between atoms: _57  and  _59
REMARK   26  A    between atoms: _59  and  _60
REMARK   27  A    between atoms: _59  and  _62
REMARK   28  A    between atoms: _62  and  _63
REMARK   29  A    between atoms: _66  and  _68
REMARK   30  A    between atoms: _68  and  _69
REMARK   31  A    between atoms: _72  and  _74
REMARK   32  A    between atoms: _74  and  _75
REMARK   33  A    between atoms: _74  and  _77
REMARK   34  A    between atoms: _77  and  _78
REMARK   35  A    between atoms: _78  and  _79
REMARK   36  A    between atoms: _84  and  _86
REMARK   37  A    between atoms: _86  and  _87
REMARK   38  A    between atoms: _86  and  _89
REMARK   39  A    between atoms: _89  and  _90
REMARK   40  A    between atoms: _93  and  _95
REMARK   41  A    between atoms: _95  and  _96
REMARK   42  A    between atoms: _95  and  _98
REMARK   43  A    between atoms: _98  and  _99
REMARK   44  A    between atoms: _102  and  _104
REMARK   45  A    between atoms: _104  and  _105
REMARK   46  A    between atoms: _104  and  _107
REMARK   47  A    between atoms: _110  and  _112
REMARK   48  A    between atoms: _112  and  _113
REMARK   49  A    between atoms: _112  and  _115
REMARK   50  A    between atoms: _115  and  _116
REMARK   51  A    between atoms: _119  and  _121
REMARK   52  A    between atoms: _121  and  _122
REMARK   53  A    between atoms: _121  and  _124
REMARK   54  A    between atoms: _124  and  _125
REMARK   55  A    between atoms: _130  and  _132
REMARK   56  A    between atoms: _132  and  _133
REMARK   57  A    between atoms: _132  and  _135
REMARK   58  A    between atoms: _135  and  _136
REMARK   59  A    between atoms: _139  and  _141
REMARK   60  A    between atoms: _141  and  _142
REMARK   61  A    between atoms: _141  and  _144
REMARK   62  A    between atoms: _144  and  _145
REMARK   63  A    between atoms: _150  and  _151
REMARK   64  A    between atoms: _153  and  _155
REMARK   65  A    between atoms: _155  and  _156
REMARK   66  A    between atoms: _159  and  _161
REMARK   67  A    between atoms: _161  and  _162
REMARK   68  A    between atoms: _161  and  _164
REMARK   69  A    between atoms: _164  and  _165
REMARK   70  A    between atoms: _168  and  _170
REMARK   71  A    between atoms: _170  and  _171
REMARK   72  A    between atoms: _170  and  _173
REMARK   73  A    between atoms: _173  and  _174
REMARK   74  A    between atoms: _177  and  _179
REMARK   75  A    between atoms: _179  and  _180
REMARK   76  A    between atoms: _183  and  _185
REMARK   77  A    between atoms: _185  and  _186
REMARK   78  A    between atoms: _188  and  _190
REMARK   79  A    between atoms: _190  and  _191
REMARK   80  A    between atoms: _190  and  _193
REMARK   81  A    between atoms: _193  and  _194
REMARK   82  A    between atoms: _199  and  _201
REMARK   83  A    between atoms: _201  and  _202
REMARK   84  A    between atoms: _201  and  _204
REMARK   85  A    between atoms: _204  and  _205
REMARK   86  A    between atoms: _205  and  _206
REMARK   87  A    between atoms: _206  and  _207
REMARK   88  A    between atoms: _216  and  _218
REMARK   89  A    between atoms: _218  and  _219
REMARK   90  A    between atoms: _218  and  _221
REMARK   91  A    between atoms: _221  and  _222
REMARK   92  A    between atoms: _225  and  _227
REMARK   93  A    between atoms: _227  and  _228
REMARK   94  A    between atoms: _227  and  _230
REMARK   95  A    between atoms: _230  and  _231
REMARK   96  A    between atoms: _233  and  _235
REMARK   97  A    between atoms: _235  and  _236
REMARK   98  A    between atoms: _235  and  _238
REMARK   99  A    between atoms: _238  and  _239
REMARK  100  A    between atoms: _239  and  _350
REMARK  101  A    between atoms: _240  and  _242
REMARK  102  A    between atoms: _242  and  _243
REMARK  103  A    between atoms: _242  and  _245
REMARK  104  A    between atoms: _245  and  _246
REMARK  105  A    between atoms: _246  and  _247
REMARK  106  A    between atoms: _252  and  _254
REMARK  107  A    between atoms: _254  and  _255
REMARK  108  A    between atoms: _257  and  _259
REMARK  109  A    between atoms: _259  and  _260
REMARK  110  A    between atoms: _259  and  _262
REMARK  111  A    between atoms: _262  and  _263
REMARK  112  A    between atoms: _266  and  _268
REMARK  113  A    between atoms: _268  and  _269
REMARK  114  A    between atoms: _268  and  _271
REMARK  115  A    between atoms: _271  and  _272
REMARK  116  A    between atoms: _274  and  _276
REMARK  117  A    between atoms: _276  and  _277
REMARK  118  A    between atoms: _279  and  _281
REMARK  119  A    between atoms: _281  and  _282
REMARK  120  A    between atoms: _284  and  _286
REMARK  121  A    between atoms: _286  and  _287
REMARK  122  A    between atoms: _286  and  _289
REMARK  123  A    between atoms: _292  and  _294
REMARK  124  A    between atoms: _294  and  _295
REMARK  125  A    between atoms: _294  and  _297
REMARK  126  A    between atoms: _300  and  _302
REMARK  127  A    between atoms: _302  and  _303
REMARK  128  A    between atoms: _302  and  _305
REMARK  129  A    between atoms: _305  and  _306
REMARK  130  A    between atoms: _308  and  _310
REMARK  131  A    between atoms: _310  and  _311
REMARK  132  A    between atoms: _310  and  _313
REMARK  133  A    between atoms: _313  and  _314
REMARK  134  A    between atoms: _324  and  _326
REMARK  135  A    between atoms: _326  and  _327
REMARK  136  A    between atoms: _329  and  _331
REMARK  137  A    between atoms: _331  and  _332
REMARK  138  A    between atoms: _331  and  _334
REMARK  139  A    between atoms: _334  and  _335
REMARK  140  A    between atoms: _335  and  _336
REMARK  141  A    between atoms: _339  and  _341
REMARK  142  A    between atoms: _341  and  _342
REMARK  143  A    between atoms: _344  and  _346
REMARK  144  A    between atoms: _346  and  _347
REMARK  145  A    between atoms: _346  and  _349
REMARK  146  A    between atoms: _349  and  _350
REMARK  147  A    between atoms: _351  and  _353
REMARK  148  A    between atoms: _353  and  _354
REMARK  149  A    between atoms: _357  and  _359
REMARK  150  A    between atoms: _359  and  _360
REMARK  151  A    between atoms: _359  and  _362
REMARK  152  A    between atoms: _362  and  _363
REMARK  153  A    between atoms: _363  and  _364
REMARK  154  A    between atoms: _369  and  _371
REMARK  155  A    between atoms: _371  and  _372
REMARK  156  A    between atoms: _371  and  _374
REMARK  157  A    between atoms: _374  and  _375
REMARK  158  A    between atoms: _375  and  _376
REMARK  159  A    between atoms: _376  and  _377
REMARK  160  A    between atoms: _387  and  _388
REMARK  161  A    between atoms: _393  and  _395
REMARK  162  A    between atoms: _395  and  _396
REMARK  163  A    between atoms: _398  and  _400
REMARK  164  A    between atoms: _400  and  _401
REMARK  165  A    between atoms: _400  and  _403
REMARK  166  A    between atoms: _403  and  _404
REMARK  167  A    between atoms: _407  and  _409
REMARK  168  A    between atoms: _409  and  _410
REMARK  169  A    between atoms: _409  and  _412
REMARK  170  A    between atoms: _412  and  _413
REMARK  171  A    between atoms: _418  and  _419
REMARK  172  A    between atoms: _423  and  _424
REMARK  173  A    between atoms: _427  and  _428
REMARK  174  A    between atoms: _433  and  _435
REMARK  175  A    between atoms: _435  and  _436
REMARK  176  A    between atoms: _435  and  _438
REMARK  177  A    between atoms: _438  and  _439
REMARK  178  A    between atoms: _442  and  _444
REMARK  179  A    between atoms: _444  and  _445
REMARK  180  A    between atoms: _444  and  _447
REMARK  181  A    between atoms: _447  and  _448
REMARK  182  A    between atoms: _448  and  _449
REMARK  183  A    between atoms: _449  and  _450
REMARK  184  A    between atoms: _450  and  _451
REMARK  185  A    between atoms: _455  and  _457
REMARK  186  A    between atoms: _457  and  _458
REMARK  187  A    between atoms: _457  and  _460
REMARK  188  A    between atoms: _460  and  _461
REMARK  189  A    between atoms: _467  and  _469
REMARK  190  A    between atoms: _469  and  _470
REMARK  191  A    between atoms: _469  and  _472
REMARK  192  A    between atoms: _472  and  _473
REMARK  193  A    between atoms: _478  and  _479
REMARK  194  A    between atoms: _481  and  _483
REMARK  195  A    between atoms: _483  and  _484
REMARK  196  A    between atoms: _483  and  _486
REMARK  197  A    between atoms: _486  and  _487
REMARK  198  A    between atoms: _490  and  _492
REMARK  199  A    between atoms: _492  and  _493
REMARK  200  A    between atoms: _496  and  _498
REMARK  201  A    between atoms: _498  and  _499
REMARK  202  A    between atoms: _498  and  _501
REMARK  203  A    between atoms: _501  and  _502
REMARK  204  A    between atoms: _502  and  _503
REMARK  205  A    between atoms: _508  and  _510
REMARK  206  A    between atoms: _510  and  _511
REMARK  207  A    between atoms: _510  and  _513
REMARK  208  A    between atoms: _513  and  _514
REMARK                            x       y       z     vdW  Elec       q    Type
REMARK                         _______ _______ _______ _____ _____    ______ ____
ROOT
ATOM      1  O   HOH     1      44.276 -10.478 -10.500  0.00  0.00    +0.000 OA
ENDROOT
TORSDOF 0
REMARK  Name = ../refined-set-2016/3v7t/3v7t_pocket.pdb
REMARK  208 active torsions:
REMARK  status: ('A' for Active; 'I' for Inactive)
REMARK    1  A    between atoms: _1  and  _5
REMARK    2  A    between atoms: _5  and  _6
REMARK    3  A    between atoms: _5  and  _8
REMARK    4  A    between atoms: _8  and  _9
REMARK    5  A    between atoms: _12  and  _14
REMARK    6  A    between atoms: _14  and  _15
REMARK    7  A    between atoms: _14  and  _17
REMARK    8  A    between atoms: _20  and  _22
REMARK    9  A    between atoms: _22  and  _23
REMARK   10  A    between atoms: _22  and  _25
REMARK   11  A    between atoms: _25  and  _26
REMARK   12  A    between atoms: _32  and  _34
REMARK   13  A    between atoms: _34  and  _35
REMARK   14  A    between atoms: _34  and  _37
REMARK   15  A    between atoms: _37  and  _38
REMARK   16  A    between atoms: _38  and  _56
REMARK   17  A    between atoms: _39  and  _41
REMARK   18  A    between atoms: _41  and  _42
REMARK   19  A    between atoms: _41  and  _44
REMARK   20  A    between atoms: _44  and  _45
REMARK   21  A    between atoms: _50  and  _52
REMARK   22  A    between atoms: _52  and  _53
REMARK   23  A    between atoms: _52  and  _55
REMARK   24  A    between atoms: _55  and  _56
REMARK   25  A    between atoms: _57  and  _59
REMARK   26  A    between atoms: _59  and  _60
REMARK   27  A    between atoms: _59  and  _62
REMARK   28  A    between atoms: _62  and  _63
REMARK   29  A    between atoms: _66  and  _68
REMARK   30  A    between atoms: _68  and  _69
REMARK   31  A    between atoms: _72  and  _74
REMARK   32  A    between atoms: _74  and  _75
REMARK   33  A    between atoms: _74  and  _77
REMARK   34  A    between atoms: _77  and  _78
REMARK   35  A    between atoms: _78  and  _79
REMARK   36  A    between atoms: _84  and  _86
REMARK   37  A    between atoms: _86  and  _87
REMARK   38  A    between atoms: _86  and  _89
REMARK   39  A    between atoms: _89  and  _90
REMARK   40  A    between atoms: _93  and  _95
REMARK   41  A    between atoms: _95  and  _96
REMARK   42  A    between atoms: _95  and  _98
REMARK   43  A    between atoms: _98  and  _99
REMARK   44  A    between atoms: _102  and  _104
REMARK   45  A    between atoms: _104  and  _105
REMARK   46  A    between atoms: _104  and  _107
REMARK   47  A    between atoms: _110  and  _112
REMARK   48  A    between atoms: _112  and  _113
REMARK   49  A    between atoms: _112  and  _115
REMARK   50  A    between atoms: _115  and  _116
REMARK   51  A    between atoms: _119  and  _121
REMARK   52  A    between atoms: _121  and  _122
REMARK   53  A    between atoms: _121  and  _124
REMARK   54  A    between atoms: _124  and  _125
REMARK   55  A    between atoms: _130  and  _132
REMARK   56  A    between atoms: _132  and  _133
REMARK   57  A    between atoms: _132  and  _135
REMARK   58  A    between atoms: _135  and  _136
REMARK   59  A    between atoms: _139  and  _141
REMARK   60  A    between atoms: _141  and  _142
REMARK   61  A    between atoms: _141  and  _144
REMARK   62  A    between atoms: _144  and  _145
REMARK   63  A    between atoms: _150  and  _151
REMARK   64  A    between atoms: _153  and  _155
REMARK   65  A    between atoms: _155  and  _156
REMARK   66  A    between atoms: _159  and  _161
REMARK   67  A    between atoms: _161  and  _162
REMARK   68  A    between atoms: _161  and  _164
REMARK   69  A    between atoms: _164  and  _165
REMARK   70  A    between atoms: _168  and  _170
REMARK   71  A    between atoms: _170  and  _171
REMARK   72  A    between atoms: _170  and  _173
REMARK   73  A    between atoms: _173  and  _174
REMARK   74  A    between atoms: _177  and  _179
REMARK   75  A    between atoms: _179  and  _180
REMARK   76  A    between atoms: _183  and  _185
REMARK   77  A    between atoms: _185  and  _186
REMARK   78  A    between atoms: _188  and  _190
REMARK   79  A    between atoms: _190  and  _191
REMARK   80  A    between atoms: _190  and  _193
REMARK   81  A    between atoms: _193  and  _194
REMARK   82  A    between atoms: _199  and  _201
REMARK   83  A    between atoms: _201  and  _202
REMARK   84  A    between atoms: _201  and  _204
REMARK   85  A    between atoms: _204  and  _205
REMARK   86  A    between atoms: _205  and  _206
REMARK   87  A    between atoms: _206  and  _207
REMARK   88  A    between atoms: _216  and  _218
REMARK   89  A    between atoms: _218  and  _219
REMARK   90  A    between atoms: _218  and  _221
REMARK   91  A    between atoms: _221  and  _222
REMARK   92  A    between atoms: _225  and  _227
REMARK   93  A    between atoms: _227  and  _228
REMARK   94  A    between atoms: _227  and  _230
REMARK   95  A    between atoms: _230  and  _231
REMARK   96  A    between atoms: _233  and  _235
REMARK   97  A    between atoms: _235  and  _236
REMARK   98  A    between atoms: _235  and  _238
REMARK   99  A    between atoms: _238  and  _239
REMARK  100  A    between atoms: _239  and  _350
REMARK  101  A    between atoms: _240  and  _242
REMARK  102  A    between atoms: _242  and  _243
REMARK  103  A    between atoms: _242  and  _245
REMARK  104  A    between atoms: _245  and  _246
REMARK  105  A    between atoms: _246  and  _247
REMARK  106  A    between atoms: _252  and  _254
REMARK  107  A    between atoms: _254  and  _255
REMARK  108  A    between atoms: _257  and  _259
REMARK  109  A    between atoms: _259  and  _260
REMARK  110  A    between atoms: _259  and  _262
REMARK  111  A    between atoms: _262  and  _263
REMARK  112  A    between atoms: _266  and  _268
REMARK  113  A    between atoms: _268  and  _269
REMARK  114  A    between atoms: _268  and  _271
REMARK  115  A    between atoms: _271  and  _272
REMARK  116  A    between atoms: _274  and  _276
REMARK  117  A    between atoms: _276  and  _277
REMARK  118  A    between atoms: _279  and  _281
REMARK  119  A    between atoms: _281  and  _282
REMARK  120  A    between atoms: _284  and  _286
REMARK  121  A    between atoms: _286  and  _287
REMARK  122  A    between atoms: _286  and  _289
REMARK  123  A    between atoms: _292  and  _294
REMARK  124  A    between atoms: _294  and  _295
REMARK  125  A    between atoms: _294  and  _297
REMARK  126  A    between atoms: _300  and  _302
REMARK  127  A    between atoms: _302  and  _303
REMARK  128  A    between atoms: _302  and  _305
REMARK  129  A    between atoms: _305  and  _306
REMARK  130  A    between atoms: _308  and  _310
REMARK  131  A    between atoms: _310  and  _311
REMARK  132  A    between atoms: _310  and  _313
REMARK  133  A    between atoms: _313  and  _314
REMARK  134  A    between atoms: _324  and  _326
REMARK  135  A    between atoms: _326  and  _327
REMARK  136  A    between atoms: _329  and  _331
REMARK  137  A    between atoms: _331  and  _332
REMARK  138  A    between atoms: _331  and  _334
REMARK  139  A    between atoms: _334  and  _335
REMARK  140  A    between atoms: _335  and  _336
REMARK  141  A    between atoms: _339  and  _341
REMARK  142  A    between atoms: _341  and  _342
REMARK  143  A    between atoms: _344  and  _346
REMARK  144  A    between atoms: _346  and  _347
REMARK  145  A    between atoms: _346  and  _349
REMARK  146  A    between atoms: _349  and  _350
REMARK  147  A    between atoms: _351  and  _353
REMARK  148  A    between atoms: _353  and  _354
REMARK  149  A    between atoms: _357  and  _359
REMARK  150  A    between atoms: _359  and  _360
REMARK  151  A    between atoms: _359  and  _362
REMARK  152  A    between atoms: _362  and  _363
REMARK  153  A    between atoms: _363  and  _364
REMARK  154  A    between atoms: _369  and  _371
REMARK  155  A    between atoms: _371  and  _372
REMARK  156  A    between atoms: _371  and  _374
REMARK  157  A    between atoms: _374  and  _375
REMARK  158  A    between atoms: _375  and  _376
REMARK  159  A    between atoms: _376  and  _377
REMARK  160  A    between atoms: _387  and  _388
REMARK  161  A    between atoms: _393  and  _395
REMARK  162  A    between atoms: _395  and  _396
REMARK  163  A    between atoms: _398  and  _400
REMARK  164  A    between atoms: _400  and  _401
REMARK  165  A    between atoms: _400  and  _403
REMARK  166  A    between atoms: _403  and  _404
REMARK  167  A    between atoms: _407  and  _409
REMARK  168  A    between atoms: _409  and  _410
REMARK  169  A    between atoms: _409  and  _412
REMARK  170  A    between atoms: _412  and  _413
REMARK  171  A    between atoms: _418  and  _419
REMARK  172  A    between atoms: _423  and  _424
REMARK  173  A    between atoms: _427  and  _428
REMARK  174  A    between atoms: _433  and  _435
REMARK  175  A    between atoms: _435  and  _436
REMARK  176  A    between atoms: _435  and  _438
REMARK  177  A    between atoms: _438  and  _439
REMARK  178  A    between atoms: _442  and  _444
REMARK  179  A    between atoms: _444  and  _445
REMARK  180  A    between atoms: _444  and  _447
REMARK  181  A    between atoms: _447  and  _448
REMARK  182  A    between atoms: _448  and  _449
REMARK  183  A    between atoms: _449  and  _450
REMARK  184  A    between atoms: _450  and  _451
REMARK  185  A    between atoms: _455  and  _457
REMARK  186  A    between atoms: _457  and  _458
REMARK  187  A    between atoms: _457  and  _460
REMARK  188  A    between atoms: _460  and  _461
REMARK  189  A    between atoms: _467  and  _469
REMARK  190  A    between atoms: _469  and  _470
REMARK  191  A    between atoms: _469  and  _472
REMARK  192  A    between atoms: _472  and  _473
REMARK  193  A    between atoms: _478  and  _479
REMARK  194  A    between atoms: _481  and  _483
REMARK  195  A    between atoms: _483  and  _484
REMARK  196  A    between atoms: _483  and  _486
REMARK  197  A    between atoms: _486  and  _487
REMARK  198  A    between atoms: _490  and  _492
REMARK  199  A    between atoms: _492  and  _493
REMARK  200  A    between atoms: _496  and  _498
REMARK  201  A    between atoms: _498  and  _499
REMARK  202  A    between atoms: _498  and  _501
REMARK  203  A    between atoms: _501  and  _502
REMARK  204  A    between atoms: _502  and  _503
REMARK  205  A    between atoms: _508  and  _510
REMARK  206  A    between atoms: _510  and  _511
REMARK  207  A    between atoms: _510  and  _513
REMARK  208  A    between atoms: _513  and  _514
REMARK                            x       y       z     vdW  Elec       q    Type
REMARK                         _______ _______ _______ _____ _____    ______ ____
ROOT
ATOM      1  O   HOH     1      41.593 -19.271   4.994  0.00  0.00    +0.000 OA
ENDROOT
TORSDOF 0
REMARK  Name = ../refined-set-2016/3v7t/3v7t_pocket.pdb
REMARK  208 active torsions:
REMARK  status: ('A' for Active; 'I' for Inactive)
REMARK    1  A    between atoms: _1  and  _5
REMARK    2  A    between atoms: _5  and  _6
REMARK    3  A    between atoms: _5  and  _8
REMARK    4  A    between atoms: _8  and  _9
REMARK    5  A    between atoms: _12  and  _14
REMARK    6  A    between atoms: _14  and  _15
REMARK    7  A    between atoms: _14  and  _17
REMARK    8  A    between atoms: _20  and  _22
REMARK    9  A    between atoms: _22  and  _23
REMARK   10  A    between atoms: _22  and  _25
REMARK   11  A    between atoms: _25  and  _26
REMARK   12  A    between atoms: _32  and  _34
REMARK   13  A    between atoms: _34  and  _35
REMARK   14  A    between atoms: _34  and  _37
REMARK   15  A    between atoms: _37  and  _38
REMARK   16  A    between atoms: _38  and  _56
REMARK   17  A    between atoms: _39  and  _41
REMARK   18  A    between atoms: _41  and  _42
REMARK   19  A    between atoms: _41  and  _44
REMARK   20  A    between atoms: _44  and  _45
REMARK   21  A    between atoms: _50  and  _52
REMARK   22  A    between atoms: _52  and  _53
REMARK   23  A    between atoms: _52  and  _55
REMARK   24  A    between atoms: _55  and  _56
REMARK   25  A    between atoms: _57  and  _59
REMARK   26  A    between atoms: _59  and  _60
REMARK   27  A    between atoms: _59  and  _62
REMARK   28  A    between atoms: _62  and  _63
REMARK   29  A    between atoms: _66  and  _68
REMARK   30  A    between atoms: _68  and  _69
REMARK   31  A    between atoms: _72  and  _74
REMARK   32  A    between atoms: _74  and  _75
REMARK   33  A    between atoms: _74  and  _77
REMARK   34  A    between atoms: _77  and  _78
REMARK   35  A    between atoms: _78  and  _79
REMARK   36  A    between atoms: _84  and  _86
REMARK   37  A    between atoms: _86  and  _87
REMARK   38  A    between atoms: _86  and  _89
REMARK   39  A    between atoms: _89  and  _90
REMARK   40  A    between atoms: _93  and  _95
REMARK   41  A    between atoms: _95  and  _96
REMARK   42  A    between atoms: _95  and  _98
REMARK   43  A    between atoms: _98  and  _99
REMARK   44  A    between atoms: _102  and  _104
REMARK   45  A    between atoms: _104  and  _105
REMARK   46  A    between atoms: _104  and  _107
REMARK   47  A    between atoms: _110  and  _112
REMARK   48  A    between atoms: _112  and  _113
REMARK   49  A    between atoms: _112  and  _115
REMARK   50  A    between atoms: _115  and  _116
REMARK   51  A    between atoms: _119  and  _121
REMARK   52  A    between atoms: _121  and  _122
REMARK   53  A    between atoms: _121  and  _124
REMARK   54  A    between atoms: _124  and  _125
REMARK   55  A    between atoms: _130  and  _132
REMARK   56  A    between atoms: _132  and  _133
REMARK   57  A    between atoms: _132  and  _135
REMARK   58  A    between atoms: _135  and  _136
REMARK   59  A    between atoms: _139  and  _141
REMARK   60  A    between atoms: _141  and  _142
REMARK   61  A    between atoms: _141  and  _144
REMARK   62  A    between atoms: _144  and  _145
REMARK   63  A    between atoms: _150  and  _151
REMARK   64  A    between atoms: _153  and  _155
REMARK   65  A    between atoms: _155  and  _156
REMARK   66  A    between atoms: _159  and  _161
REMARK   67  A    between atoms: _161  and  _162
REMARK   68  A    between atoms: _161  and  _164
REMARK   69  A    between atoms: _164  and  _165
REMARK   70  A    between atoms: _168  and  _170
REMARK   71  A    between atoms: _170  and  _171
REMARK   72  A    between atoms: _170  and  _173
REMARK   73  A    between atoms: _173  and  _174
REMARK   74  A    between atoms: _177  and  _179
REMARK   75  A    between atoms: _179  and  _180
REMARK   76  A    between atoms: _183  and  _185
REMARK   77  A    between atoms: _185  and  _186
REMARK   78  A    between atoms: _188  and  _190
REMARK   79  A    between atoms: _190  and  _191
REMARK   80  A    between atoms: _190  and  _193
REMARK   81  A    between atoms: _193  and  _194
REMARK   82  A    between atoms: _199  and  _201
REMARK   83  A    between atoms: _201  and  _202
REMARK   84  A    between atoms: _201  and  _204
REMARK   85  A    between atoms: _204  and  _205
REMARK   86  A    between atoms: _205  and  _206
REMARK   87  A    between atoms: _206  and  _207
REMARK   88  A    between atoms: _216  and  _218
REMARK   89  A    between atoms: _218  and  _219
REMARK   90  A    between atoms: _218  and  _221
REMARK   91  A    between atoms: _221  and  _222
REMARK   92  A    between atoms: _225  and  _227
REMARK   93  A    between atoms: _227  and  _228
REMARK   94  A    between atoms: _227  and  _230
REMARK   95  A    between atoms: _230  and  _231
REMARK   96  A    between atoms: _233  and  _235
REMARK   97  A    between atoms: _235  and  _236
REMARK   98  A    between atoms: _235  and  _238
REMARK   99  A    between atoms: _238  and  _239
REMARK  100  A    between atoms: _239  and  _350
REMARK  101  A    between atoms: _240  and  _242
REMARK  102  A    between atoms: _242  and  _243
REMARK  103  A    between atoms: _242  and  _245
REMARK  104  A    between atoms: _245  and  _246
REMARK  105  A    between atoms: _246  and  _247
REMARK  106  A    between atoms: _252  and  _254
REMARK  107  A    between atoms: _254  and  _255
REMARK  108  A    between atoms: _257  and  _259
REMARK  109  A    between atoms: _259  and  _260
REMARK  110  A    between atoms: _259  and  _262
REMARK  111  A    between atoms: _262  and  _263
REMARK  112  A    between atoms: _266  and  _268
REMARK  113  A    between atoms: _268  and  _269
REMARK  114  A    between atoms: _268  and  _271
REMARK  115  A    between atoms: _271  and  _272
REMARK  116  A    between atoms: _274  and  _276
REMARK  117  A    between atoms: _276  and  _277
REMARK  118  A    between atoms: _279  and  _281
REMARK  119  A    between atoms: _281  and  _282
REMARK  120  A    between atoms: _284  and  _286
REMARK  121  A    between atoms: _286  and  _287
REMARK  122  A    between atoms: _286  and  _289
REMARK  123  A    between atoms: _292  and  _294
REMARK  124  A    between atoms: _294  and  _295
REMARK  125  A    between atoms: _294  and  _297
REMARK  126  A    between atoms: _300  and  _302
REMARK  127  A    between atoms: _302  and  _303
REMARK  128  A    between atoms: _302  and  _305
REMARK  129  A    between atoms: _305  and  _306
REMARK  130  A    between atoms: _308  and  _310
REMARK  131  A    between atoms: _310  and  _311
REMARK  132  A    between atoms: _310  and  _313
REMARK  133  A    between atoms: _313  and  _314
REMARK  134  A    between atoms: _324  and  _326
REMARK  135  A    between atoms: _326  and  _327
REMARK  136  A    between atoms: _329  and  _331
REMARK  137  A    between atoms: _331  and  _332
REMARK  138  A    between atoms: _331  and  _334
REMARK  139  A    between atoms: _334  and  _335
REMARK  140  A    between atoms: _335  and  _336
REMARK  141  A    between atoms: _339  and  _341
REMARK  142  A    between atoms: _341  and  _342
REMARK  143  A    between atoms: _344  and  _346
REMARK  144  A    between atoms: _346  and  _347
REMARK  145  A    between atoms: _346  and  _349
REMARK  146  A    between atoms: _349  and  _350
REMARK  147  A    between atoms: _351  and  _353
REMARK  148  A    between atoms: _353  and  _354
REMARK  149  A    between atoms: _357  and  _359
REMARK  150  A    between atoms: _359  and  _360
REMARK  151  A    between atoms: _359  and  _362
REMARK  152  A    between atoms: _362  and  _363
REMARK  153  A    between atoms: _363  and  _364
REMARK  154  A    between atoms: _369  and  _371
REMARK  155  A    between atoms: _371  and  _372
REMARK  156  A    between atoms: _371  and  _374
REMARK  157  A    between atoms: _374  and  _375
REMARK  158  A    between atoms: _375  and  _376
REMARK  159  A    between atoms: _376  and  _377
REMARK  160  A    between atoms: _387  and  _388
REMARK  161  A    between atoms: _393  and  _395
REMARK  162  A    between atoms: _395  and  _396
REMARK  163  A    between atoms: _398  and  _400
REMARK  164  A    between atoms: _400  and  _401
REMARK  165  A    between atoms: _400  and  _403
REMARK  166  A    between atoms: _403  and  _404
REMARK  167  A    between atoms: _407  and  _409
REMARK  168  A    between atoms: _409  and  _410
REMARK  169  A    between atoms: _409  and  _412
REMARK  170  A    between atoms: _412  and  _413
REMARK  171  A    between atoms: _418  and  _419
REMARK  172  A    between atoms: _423  and  _424
REMARK  173  A    between atoms: _427  and  _428
REMARK  174  A    between atoms: _433  and  _435
REMARK  175  A    between atoms: _435  and  _436
REMARK  176  A    between atoms: _435  and  _438
REMARK  177  A    between atoms: _438  and  _439
REMARK  178  A    between atoms: _442  and  _444
REMARK  179  A    between atoms: _444  and  _445
REMARK  180  A    between atoms: _444  and  _447
REMARK  181  A    between atoms: _447  and  _448
REMARK  182  A    between atoms: _448  and  _449
REMARK  183  A    between atoms: _449  and  _450
REMARK  184  A    between atoms: _450  and  _451
REMARK  185  A    between atoms: _455  and  _457
REMARK  186  A    between atoms: _457  and  _458
REMARK  187  A    between atoms: _457  and  _460
REMARK  188  A    between atoms: _460  and  _461
REMARK  189  A    between atoms: _467  and  _469
REMARK  190  A    between atoms: _469  and  _470
REMARK  191  A    between atoms: _469  and  _472
REMARK  192  A    between atoms: _472  and  _473
REMARK  193  A    between atoms: _478  and  _479
REMARK  194  A    between atoms: _481  and  _483
REMARK  195  A    between atoms: _483  and  _484
REMARK  196  A    between atoms: _483  and  _486
REMARK  197  A    between atoms: _486  and  _487
REMARK  198  A    between atoms: _490  and  _492
REMARK  199  A    between atoms: _492  and  _493
REMARK  200  A    between atoms: _496  and  _498
REMARK  201  A    between atoms: _498  and  _499
REMARK  202  A    between atoms: _498  and  _501
REMARK  203  A    between atoms: _501  and  _502
REMARK  204  A    between atoms: _502  and  _503
REMARK  205  A    between atoms: _508  and  _510
REMARK  206  A    between atoms: _510  and  _511
REMARK  207  A    between atoms: _510  and  _513
REMARK  208  A    between atoms: _513  and  _514
REMARK                            x       y       z     vdW  Elec       q    Type
REMARK                         _______ _______ _______ _____ _____    ______ ____
ROOT
ATOM      1  O   HOH     1      41.880 -12.004  -9.505  0.00  0.00    +0.000 OA
ENDROOT
TORSDOF 0
REMARK  Name = ../refined-set-2016/3v7t/3v7t_pocket.pdb
REMARK  208 active torsions:
REMARK  status: ('A' for Active; 'I' for Inactive)
REMARK    1  A    between atoms: _1  and  _5
REMARK    2  A    between atoms: _5  and  _6
REMARK    3  A    between atoms: _5  and  _8
REMARK    4  A    between atoms: _8  and  _9
REMARK    5  A    between atoms: _12  and  _14
REMARK    6  A    between atoms: _14  and  _15
REMARK    7  A    between atoms: _14  and  _17
REMARK    8  A    between atoms: _20  and  _22
REMARK    9  A    between atoms: _22  and  _23
REMARK   10  A    between atoms: _22  and  _25
REMARK   11  A    between atoms: _25  and  _26
REMARK   12  A    between atoms: _32  and  _34
REMARK   13  A    between atoms: _34  and  _35
REMARK   14  A    between atoms: _34  and  _37
REMARK   15  A    between atoms: _37  and  _38
REMARK   16  A    between atoms: _38  and  _56
REMARK   17  A    between atoms: _39  and  _41
REMARK   18  A    between atoms: _41  and  _42
REMARK   19  A    between atoms: _41  and  _44
REMARK   20  A    between atoms: _44  and  _45
REMARK   21  A    between atoms: _50  and  _52
REMARK   22  A    between atoms: _52  and  _53
REMARK   23  A    between atoms: _52  and  _55
REMARK   24  A    between atoms: _55  and  _56
REMARK   25  A    between atoms: _57  and  _59
REMARK   26  A    between atoms: _59  and  _60
REMARK   27  A    between atoms: _59  and  _62
REMARK   28  A    between atoms: _62  and  _63
REMARK   29  A    between atoms: _66  and  _68
REMARK   30  A    between atoms: _68  and  _69
REMARK   31  A    between atoms: _72  and  _74
REMARK   32  A    between atoms: _74  and  _75
REMARK   33  A    between atoms: _74  and  _77
REMARK   34  A    between atoms: _77  and  _78
REMARK   35  A    between atoms: _78  and  _79
REMARK   36  A    between atoms: _84  and  _86
REMARK   37  A    between atoms: _86  and  _87
REMARK   38  A    between atoms: _86  and  _89
REMARK   39  A    between atoms: _89  and  _90
REMARK   40  A    between atoms: _93  and  _95
REMARK   41  A    between atoms: _95  and  _96
REMARK   42  A    between atoms: _95  and  _98
REMARK   43  A    between atoms: _98  and  _99
REMARK   44  A    between atoms: _102  and  _104
REMARK   45  A    between atoms: _104  and  _105
REMARK   46  A    between atoms: _104  and  _107
REMARK   47  A    between atoms: _110  and  _112
REMARK   48  A    between atoms: _112  and  _113
REMARK   49  A    between atoms: _112  and  _115
REMARK   50  A    between atoms: _115  and  _116
REMARK   51  A    between atoms: _119  and  _121
REMARK   52  A    between atoms: _121  and  _122
REMARK   53  A    between atoms: _121  and  _124
REMARK   54  A    between atoms: _124  and  _125
REMARK   55  A    between atoms: _130  and  _132
REMARK   56  A    between atoms: _132  and  _133
REMARK   57  A    between atoms: _132  and  _135
REMARK   58  A    between atoms: _135  and  _136
REMARK   59  A    between atoms: _139  and  _141
REMARK   60  A    between atoms: _141  and  _142
REMARK   61  A    between atoms: _141  and  _144
REMARK   62  A    between atoms: _144  and  _145
REMARK   63  A    between atoms: _150  and  _151
REMARK   64  A    between atoms: _153  and  _155
REMARK   65  A    between atoms: _155  and  _156
REMARK   66  A    between atoms: _159  and  _161
REMARK   67  A    between atoms: _161  and  _162
REMARK   68  A    between atoms: _161  and  _164
REMARK   69  A    between atoms: _164  and  _165
REMARK   70  A    between atoms: _168  and  _170
REMARK   71  A    between atoms: _170  and  _171
REMARK   72  A    between atoms: _170  and  _173
REMARK   73  A    between atoms: _173  and  _174
REMARK   74  A    between atoms: _177  and  _179
REMARK   75  A    between atoms: _179  and  _180
REMARK   76  A    between atoms: _183  and  _185
REMARK   77  A    between atoms: _185  and  _186
REMARK   78  A    between atoms: _188  and  _190
REMARK   79  A    between atoms: _190  and  _191
REMARK   80  A    between atoms: _190  and  _193
REMARK   81  A    between atoms: _193  and  _194
REMARK   82  A    between atoms: _199  and  _201
REMARK   83  A    between atoms: _201  and  _202
REMARK   84  A    between atoms: _201  and  _204
REMARK   85  A    between atoms: _204  and  _205
REMARK   86  A    between atoms: _205  and  _206
REMARK   87  A    between atoms: _206  and  _207
REMARK   88  A    between atoms: _216  and  _218
REMARK   89  A    between atoms: _218  and  _219
REMARK   90  A    between atoms: _218  and  _221
REMARK   91  A    between atoms: _221  and  _222
REMARK   92  A    between atoms: _225  and  _227
REMARK   93  A    between atoms: _227  and  _228
REMARK   94  A    between atoms: _227  and  _230
REMARK   95  A    between atoms: _230  and  _231
REMARK   96  A    between atoms: _233  and  _235
REMARK   97  A    between atoms: _235  and  _236
REMARK   98  A    between atoms: _235  and  _238
REMARK   99  A    between atoms: _238  and  _239
REMARK  100  A    between atoms: _239  and  _350
REMARK  101  A    between atoms: _240  and  _242
REMARK  102  A    between atoms: _242  and  _243
REMARK  103  A    between atoms: _242  and  _245
REMARK  104  A    between atoms: _245  and  _246
REMARK  105  A    between atoms: _246  and  _247
REMARK  106  A    between atoms: _252  and  _254
REMARK  107  A    between atoms: _254  and  _255
REMARK  108  A    between atoms: _257  and  _259
REMARK  109  A    between atoms: _259  and  _260
REMARK  110  A    between atoms: _259  and  _262
REMARK  111  A    between atoms: _262  and  _263
REMARK  112  A    between atoms: _266  and  _268
REMARK  113  A    between atoms: _268  and  _269
REMARK  114  A    between atoms: _268  and  _271
REMARK  115  A    between atoms: _271  and  _272
REMARK  116  A    between atoms: _274  and  _276
REMARK  117  A    between atoms: _276  and  _277
REMARK  118  A    between atoms: _279  and  _281
REMARK  119  A    between atoms: _281  and  _282
REMARK  120  A    between atoms: _284  and  _286
REMARK  121  A    between atoms: _286  and  _287
REMARK  122  A    between atoms: _286  and  _289
REMARK  123  A    between atoms: _292  and  _294
REMARK  124  A    between atoms: _294  and  _295
REMARK  125  A    between atoms: _294  and  _297
REMARK  126  A    between atoms: _300  and  _302
REMARK  127  A    between atoms: _302  and  _303
REMARK  128  A    between atoms: _302  and  _305
REMARK  129  A    between atoms: _305  and  _306
REMARK  130  A    between atoms: _308  and  _310
REMARK  131  A    between atoms: _310  and  _311
REMARK  132  A    between atoms: _310  and  _313
REMARK  133  A    between atoms: _313  and  _314
REMARK  134  A    between atoms: _324  and  _326
REMARK  135  A    between atoms: _326  and  _327
REMARK  136  A    between atoms: _329  and  _331
REMARK  137  A    between atoms: _331  and  _332
REMARK  138  A    between atoms: _331  and  _334
REMARK  139  A    between atoms: _334  and  _335
REMARK  140  A    between atoms: _335  and  _336
REMARK  141  A    between atoms: _339  and  _341
REMARK  142  A    between atoms: _341  and  _342
REMARK  143  A    between atoms: _344  and  _346
REMARK  144  A    between atoms: _346  and  _347
REMARK  145  A    between atoms: _346  and  _349
REMARK  146  A    between atoms: _349  and  _350
REMARK  147  A    between atoms: _351  and  _353
REMARK  148  A    between atoms: _353  and  _354
REMARK  149  A    between atoms: _357  and  _359
REMARK  150  A    between atoms: _359  and  _360
REMARK  151  A    between atoms: _359  and  _362
REMARK  152  A    between atoms: _362  and  _363
REMARK  153  A    between atoms: _363  and  _364
REMARK  154  A    between atoms: _369  and  _371
REMARK  155  A    between atoms: _371  and  _372
REMARK  156  A    between atoms: _371  and  _374
REMARK  157  A    between atoms: _374  and  _375
REMARK  158  A    between atoms: _375  and  _376
REMARK  159  A    between atoms: _376  and  _377
REMARK  160  A    between atoms: _387  and  _388
REMARK  161  A    between atoms: _393  and  _395
REMARK  162  A    between atoms: _395  and  _396
REMARK  163  A    between atoms: _398  and  _400
REMARK  164  A    between atoms: _400  and  _401
REMARK  165  A    between atoms: _400  and  _403
REMARK  166  A    between atoms: _403  and  _404
REMARK  167  A    between atoms: _407  and  _409
REMARK  168  A    between atoms: _409  and  _410
REMARK  169  A    between atoms: _409  and  _412
REMARK  170  A    between atoms: _412  and  _413
REMARK  171  A    between atoms: _418  and  _419
REMARK  172  A    between atoms: _423  and  _424
REMARK  173  A    between atoms: _427  and  _428
REMARK  174  A    between atoms: _433  and  _435
REMARK  175  A    between atoms: _435  and  _436
REMARK  176  A    between atoms: _435  and  _438
REMARK  177  A    between atoms: _438  and  _439
REMARK  178  A    between atoms: _442  and  _444
REMARK  179  A    between atoms: _444  and  _445
REMARK  180  A    between atoms: _444  and  _447
REMARK  181  A    between atoms: _447  and  _448
REMARK  182  A    between atoms: _448  and  _449
REMARK  183  A    between atoms: _449  and  _450
REMARK  184  A    between atoms: _450  and  _451
REMARK  185  A    between atoms: _455  and  _457
REMARK  186  A    between atoms: _457  and  _458
REMARK  187  A    between atoms: _457  and  _460
REMARK  188  A    between atoms: _460  and  _461
REMARK  189  A    between atoms: _467  and  _469
REMARK  190  A    between atoms: _469  and  _470
REMARK  191  A    between atoms: _469  and  _472
REMARK  192  A    between atoms: _472  and  _473
REMARK  193  A    between atoms: _478  and  _479
REMARK  194  A    between atoms: _481  and  _483
REMARK  195  A    between atoms: _483  and  _484
REMARK  196  A    between atoms: _483  and  _486
REMARK  197  A    between atoms: _486  and  _487
REMARK  198  A    between atoms: _490  and  _492
REMARK  199  A    between atoms: _492  and  _493
REMARK  200  A    between atoms: _496  and  _498
REMARK  201  A    between atoms: _498  and  _499
REMARK  202  A    between atoms: _498  and  _501
REMARK  203  A    between atoms: _501  and  _502
REMARK  204  A    between atoms: _502  and  _503
REMARK  205  A    between atoms: _508  and  _510
REMARK  206  A    between atoms: _510  and  _511
REMARK  207  A    between atoms: _510  and  _513
REMARK  208  A    between atoms: _513  and  _514
REMARK                            x       y       z     vdW  Elec       q    Type
REMARK                         _______ _______ _______ _____ _____    ______ ____
ROOT
ATOM      1  O   HOH     1      46.214 -14.983   3.938  0.00  0.00    +0.000 OA
ENDROOT
TORSDOF 0
REMARK  Name = ../refined-set-2016/3v7t/3v7t_pocket.pdb
REMARK  208 active torsions:
REMARK  status: ('A' for Active; 'I' for Inactive)
REMARK    1  A    between atoms: _1  and  _5
REMARK    2  A    between atoms: _5  and  _6
REMARK    3  A    between atoms: _5  and  _8
REMARK    4  A    between atoms: _8  and  _9
REMARK    5  A    between atoms: _12  and  _14
REMARK    6  A    between atoms: _14  and  _15
REMARK    7  A    between atoms: _14  and  _17
REMARK    8  A    between atoms: _20  and  _22
REMARK    9  A    between atoms: _22  and  _23
REMARK   10  A    between atoms: _22  and  _25
REMARK   11  A    between atoms: _25  and  _26
REMARK   12  A    between atoms: _32  and  _34
REMARK   13  A    between atoms: _34  and  _35
REMARK   14  A    between atoms: _34  and  _37
REMARK   15  A    between atoms: _37  and  _38
REMARK   16  A    between atoms: _38  and  _56
REMARK   17  A    between atoms: _39  and  _41
REMARK   18  A    between atoms: _41  and  _42
REMARK   19  A    between atoms: _41  and  _44
REMARK   20  A    between atoms: _44  and  _45
REMARK   21  A    between atoms: _50  and  _52
REMARK   22  A    between atoms: _52  and  _53
REMARK   23  A    between atoms: _52  and  _55
REMARK   24  A    between atoms: _55  and  _56
REMARK   25  A    between atoms: _57  and  _59
REMARK   26  A    between atoms: _59  and  _60
REMARK   27  A    between atoms: _59  and  _62
REMARK   28  A    between atoms: _62  and  _63
REMARK   29  A    between atoms: _66  and  _68
REMARK   30  A    between atoms: _68  and  _69
REMARK   31  A    between atoms: _72  and  _74
REMARK   32  A    between atoms: _74  and  _75
REMARK   33  A    between atoms: _74  and  _77
REMARK   34  A    between atoms: _77  and  _78
REMARK   35  A    between atoms: _78  and  _79
REMARK   36  A    between atoms: _84  and  _86
REMARK   37  A    between atoms: _86  and  _87
REMARK   38  A    between atoms: _86  and  _89
REMARK   39  A    between atoms: _89  and  _90
REMARK   40  A    between atoms: _93  and  _95
REMARK   41  A    between atoms: _95  and  _96
REMARK   42  A    between atoms: _95  and  _98
REMARK   43  A    between atoms: _98  and  _99
REMARK   44  A    between atoms: _102  and  _104
REMARK   45  A    between atoms: _104  and  _105
REMARK   46  A    between atoms: _104  and  _107
REMARK   47  A    between atoms: _110  and  _112
REMARK   48  A    between atoms: _112  and  _113
REMARK   49  A    between atoms: _112  and  _115
REMARK   50  A    between atoms: _115  and  _116
REMARK   51  A    between atoms: _119  and  _121
REMARK   52  A    between atoms: _121  and  _122
REMARK   53  A    between atoms: _121  and  _124
REMARK   54  A    between atoms: _124  and  _125
REMARK   55  A    between atoms: _130  and  _132
REMARK   56  A    between atoms: _132  and  _133
REMARK   57  A    between atoms: _132  and  _135
REMARK   58  A    between atoms: _135  and  _136
REMARK   59  A    between atoms: _139  and  _141
REMARK   60  A    between atoms: _141  and  _142
REMARK   61  A    between atoms: _141  and  _144
REMARK   62  A    between atoms: _144  and  _145
REMARK   63  A    between atoms: _150  and  _151
REMARK   64  A    between atoms: _153  and  _155
REMARK   65  A    between atoms: _155  and  _156
REMARK   66  A    between atoms: _159  and  _161
REMARK   67  A    between atoms: _161  and  _162
REMARK   68  A    between atoms: _161  and  _164
REMARK   69  A    between atoms: _164  and  _165
REMARK   70  A    between atoms: _168  and  _170
REMARK   71  A    between atoms: _170  and  _171
REMARK   72  A    between atoms: _170  and  _173
REMARK   73  A    between atoms: _173  and  _174
REMARK   74  A    between atoms: _177  and  _179
REMARK   75  A    between atoms: _179  and  _180
REMARK   76  A    between atoms: _183  and  _185
REMARK   77  A    between atoms: _185  and  _186
REMARK   78  A    between atoms: _188  and  _190
REMARK   79  A    between atoms: _190  and  _191
REMARK   80  A    between atoms: _190  and  _193
REMARK   81  A    between atoms: _193  and  _194
REMARK   82  A    between atoms: _199  and  _201
REMARK   83  A    between atoms: _201  and  _202
REMARK   84  A    between atoms: _201  and  _204
REMARK   85  A    between atoms: _204  and  _205
REMARK   86  A    between atoms: _205  and  _206
REMARK   87  A    between atoms: _206  and  _207
REMARK   88  A    between atoms: _216  and  _218
REMARK   89  A    between atoms: _218  and  _219
REMARK   90  A    between atoms: _218  and  _221
REMARK   91  A    between atoms: _221  and  _222
REMARK   92  A    between atoms: _225  and  _227
REMARK   93  A    between atoms: _227  and  _228
REMARK   94  A    between atoms: _227  and  _230
REMARK   95  A    between atoms: _230  and  _231
REMARK   96  A    between atoms: _233  and  _235
REMARK   97  A    between atoms: _235  and  _236
REMARK   98  A    between atoms: _235  and  _238
REMARK   99  A    between atoms: _238  and  _239
REMARK  100  A    between atoms: _239  and  _350
REMARK  101  A    between atoms: _240  and  _242
REMARK  102  A    between atoms: _242  and  _243
REMARK  103  A    between atoms: _242  and  _245
REMARK  104  A    between atoms: _245  and  _246
REMARK  105  A    between atoms: _246  and  _247
REMARK  106  A    between atoms: _252  and  _254
REMARK  107  A    between atoms: _254  and  _255
REMARK  108  A    between atoms: _257  and  _259
REMARK  109  A    between atoms: _259  and  _260
REMARK  110  A    between atoms: _259  and  _262
REMARK  111  A    between atoms: _262  and  _263
REMARK  112  A    between atoms: _266  and  _268
REMARK  113  A    between atoms: _268  and  _269
REMARK  114  A    between atoms: _268  and  _271
REMARK  115  A    between atoms: _271  and  _272
REMARK  116  A    between atoms: _274  and  _276
REMARK  117  A    between atoms: _276  and  _277
REMARK  118  A    between atoms: _279  and  _281
REMARK  119  A    between atoms: _281  and  _282
REMARK  120  A    between atoms: _284  and  _286
REMARK  121  A    between atoms: _286  and  _287
REMARK  122  A    between atoms: _286  and  _289
REMARK  123  A    between atoms: _292  and  _294
REMARK  124  A    between atoms: _294  and  _295
REMARK  125  A    between atoms: _294  and  _297
REMARK  126  A    between atoms: _300  and  _302
REMARK  127  A    between atoms: _302  and  _303
REMARK  128  A    between atoms: _302  and  _305
REMARK  129  A    between atoms: _305  and  _306
REMARK  130  A    between atoms: _308  and  _310
REMARK  131  A    between atoms: _310  and  _311
REMARK  132  A    between atoms: _310  and  _313
REMARK  133  A    between atoms: _313  and  _314
REMARK  134  A    between atoms: _324  and  _326
REMARK  135  A    between atoms: _326  and  _327
REMARK  136  A    between atoms: _329  and  _331
REMARK  137  A    between atoms: _331  and  _332
REMARK  138  A    between atoms: _331  and  _334
REMARK  139  A    between atoms: _334  and  _335
REMARK  140  A    between atoms: _335  and  _336
REMARK  141  A    between atoms: _339  and  _341
REMARK  142  A    between atoms: _341  and  _342
REMARK  143  A    between atoms: _344  and  _346
REMARK  144  A    between atoms: _346  and  _347
REMARK  145  A    between atoms: _346  and  _349
REMARK  146  A    between atoms: _349  and  _350
REMARK  147  A    between atoms: _351  and  _353
REMARK  148  A    between atoms: _353  and  _354
REMARK  149  A    between atoms: _357  and  _359
REMARK  150  A    between atoms: _359  and  _360
REMARK  151  A    between atoms: _359  and  _362
REMARK  152  A    between atoms: _362  and  _363
REMARK  153  A    between atoms: _363  and  _364
REMARK  154  A    between atoms: _369  and  _371
REMARK  155  A    between atoms: _371  and  _372
REMARK  156  A    between atoms: _371  and  _374
REMARK  157  A    between atoms: _374  and  _375
REMARK  158  A    between atoms: _375  and  _376
REMARK  159  A    between atoms: _376  and  _377
REMARK  160  A    between atoms: _387  and  _388
REMARK  161  A    between atoms: _393  and  _395
REMARK  162  A    between atoms: _395  and  _396
REMARK  163  A    between atoms: _398  and  _400
REMARK  164  A    between atoms: _400  and  _401
REMARK  165  A    between atoms: _400  and  _403
REMARK  166  A    between atoms: _403  and  _404
REMARK  167  A    between atoms: _407  and  _409
REMARK  168  A    between atoms: _409  and  _410
REMARK  169  A    between atoms: _409  and  _412
REMARK  170  A    between atoms: _412  and  _413
REMARK  171  A    between atoms: _418  and  _419
REMARK  172  A    between atoms: _423  and  _424
REMARK  173  A    between atoms: _427  and  _428
REMARK  174  A    between atoms: _433  and  _435
REMARK  175  A    between atoms: _435  and  _436
REMARK  176  A    between atoms: _435  and  _438
REMARK  177  A    between atoms: _438  and  _439
REMARK  178  A    between atoms: _442  and  _444
REMARK  179  A    between atoms: _444  and  _445
REMARK  180  A    between atoms: _444  and  _447
REMARK  181  A    between atoms: _447  and  _448
REMARK  182  A    between atoms: _448  and  _449
REMARK  183  A    between atoms: _449  and  _450
REMARK  184  A    between atoms: _450  and  _451
REMARK  185  A    between atoms: _455  and  _457
REMARK  186  A    between atoms: _457  and  _458
REMARK  187  A    between atoms: _457  and  _460
REMARK  188  A    between atoms: _460  and  _461
REMARK  189  A    between atoms: _467  and  _469
REMARK  190  A    between atoms: _469  and  _470
REMARK  191  A    between atoms: _469  and  _472
REMARK  192  A    between atoms: _472  and  _473
REMARK  193  A    between atoms: _478  and  _479
REMARK  194  A    between atoms: _481  and  _483
REMARK  195  A    between atoms: _483  and  _484
REMARK  196  A    between atoms: _483  and  _486
REMARK  197  A    between atoms: _486  and  _487
REMARK  198  A    between atoms: _490  and  _492
REMARK  199  A    between atoms: _492  and  _493
REMARK  200  A    between atoms: _496  and  _498
REMARK  201  A    between atoms: _498  and  _499
REMARK  202  A    between atoms: _498  and  _501
REMARK  203  A    between atoms: _501  and  _502
REMARK  204  A    between atoms: _502  and  _503
REMARK  205  A    between atoms: _508  and  _510
REMARK  206  A    between atoms: _510  and  _511
REMARK  207  A    between atoms: _510  and  _513
REMARK  208  A    between atoms: _513  and  _514
REMARK                            x       y       z     vdW  Elec       q    Type
REMARK                         _______ _______ _______ _____ _____    ______ ____
ROOT
ATOM      1  O   HOH     1      37.736  -9.964  -5.038  0.00  0.00    +0.000 OA
ENDROOT
TORSDOF 0
REMARK  Name = ../refined-set-2016/3v7t/3v7t_pocket.pdb
REMARK  208 active torsions:
REMARK  status: ('A' for Active; 'I' for Inactive)
REMARK    1  A    between atoms: _1  and  _5
REMARK    2  A    between atoms: _5  and  _6
REMARK    3  A    between atoms: _5  and  _8
REMARK    4  A    between atoms: _8  and  _9
REMARK    5  A    between atoms: _12  and  _14
REMARK    6  A    between atoms: _14  and  _15
REMARK    7  A    between atoms: _14  and  _17
REMARK    8  A    between atoms: _20  and  _22
REMARK    9  A    between atoms: _22  and  _23
REMARK   10  A    between atoms: _22  and  _25
REMARK   11  A    between atoms: _25  and  _26
REMARK   12  A    between atoms: _32  and  _34
REMARK   13  A    between atoms: _34  and  _35
REMARK   14  A    between atoms: _34  and  _37
REMARK   15  A    between atoms: _37  and  _38
REMARK   16  A    between atoms: _38  and  _56
REMARK   17  A    between atoms: _39  and  _41
REMARK   18  A    between atoms: _41  and  _42
REMARK   19  A    between atoms: _41  and  _44
REMARK   20  A    between atoms: _44  and  _45
REMARK   21  A    between atoms: _50  and  _52
REMARK   22  A    between atoms: _52  and  _53
REMARK   23  A    between atoms: _52  and  _55
REMARK   24  A    between atoms: _55  and  _56
REMARK   25  A    between atoms: _57  and  _59
REMARK   26  A    between atoms: _59  and  _60
REMARK   27  A    between atoms: _59  and  _62
REMARK   28  A    between atoms: _62  and  _63
REMARK   29  A    between atoms: _66  and  _68
REMARK   30  A    between atoms: _68  and  _69
REMARK   31  A    between atoms: _72  and  _74
REMARK   32  A    between atoms: _74  and  _75
REMARK   33  A    between atoms: _74  and  _77
REMARK   34  A    between atoms: _77  and  _78
REMARK   35  A    between atoms: _78  and  _79
REMARK   36  A    between atoms: _84  and  _86
REMARK   37  A    between atoms: _86  and  _87
REMARK   38  A    between atoms: _86  and  _89
REMARK   39  A    between atoms: _89  and  _90
REMARK   40  A    between atoms: _93  and  _95
REMARK   41  A    between atoms: _95  and  _96
REMARK   42  A    between atoms: _95  and  _98
REMARK   43  A    between atoms: _98  and  _99
REMARK   44  A    between atoms: _102  and  _104
REMARK   45  A    between atoms: _104  and  _105
REMARK   46  A    between atoms: _104  and  _107
REMARK   47  A    between atoms: _110  and  _112
REMARK   48  A    between atoms: _112  and  _113
REMARK   49  A    between atoms: _112  and  _115
REMARK   50  A    between atoms: _115  and  _116
REMARK   51  A    between atoms: _119  and  _121
REMARK   52  A    between atoms: _121  and  _122
REMARK   53  A    between atoms: _121  and  _124
REMARK   54  A    between atoms: _124  and  _125
REMARK   55  A    between atoms: _130  and  _132
REMARK   56  A    between atoms: _132  and  _133
REMARK   57  A    between atoms: _132  and  _135
REMARK   58  A    between atoms: _135  and  _136
REMARK   59  A    between atoms: _139  and  _141
REMARK   60  A    between atoms: _141  and  _142
REMARK   61  A    between atoms: _141  and  _144
REMARK   62  A    between atoms: _144  and  _145
REMARK   63  A    between atoms: _150  and  _151
REMARK   64  A    between atoms: _153  and  _155
REMARK   65  A    between atoms: _155  and  _156
REMARK   66  A    between atoms: _159  and  _161
REMARK   67  A    between atoms: _161  and  _162
REMARK   68  A    between atoms: _161  and  _164
REMARK   69  A    between atoms: _164  and  _165
REMARK   70  A    between atoms: _168  and  _170
REMARK   71  A    between atoms: _170  and  _171
REMARK   72  A    between atoms: _170  and  _173
REMARK   73  A    between atoms: _173  and  _174
REMARK   74  A    between atoms: _177  and  _179
REMARK   75  A    between atoms: _179  and  _180
REMARK   76  A    between atoms: _183  and  _185
REMARK   77  A    between atoms: _185  and  _186
REMARK   78  A    between atoms: _188  and  _190
REMARK   79  A    between atoms: _190  and  _191
REMARK   80  A    between atoms: _190  and  _193
REMARK   81  A    between atoms: _193  and  _194
REMARK   82  A    between atoms: _199  and  _201
REMARK   83  A    between atoms: _201  and  _202
REMARK   84  A    between atoms: _201  and  _204
REMARK   85  A    between atoms: _204  and  _205
REMARK   86  A    between atoms: _205  and  _206
REMARK   87  A    between atoms: _206  and  _207
REMARK   88  A    between atoms: _216  and  _218
REMARK   89  A    between atoms: _218  and  _219
REMARK   90  A    between atoms: _218  and  _221
REMARK   91  A    between atoms: _221  and  _222
REMARK   92  A    between atoms: _225  and  _227
REMARK   93  A    between atoms: _227  and  _228
REMARK   94  A    between atoms: _227  and  _230
REMARK   95  A    between atoms: _230  and  _231
REMARK   96  A    between atoms: _233  and  _235
REMARK   97  A    between atoms: _235  and  _236
REMARK   98  A    between atoms: _235  and  _238
REMARK   99  A    between atoms: _238  and  _239
REMARK  100  A    between atoms: _239  and  _350
REMARK  101  A    between atoms: _240  and  _242
REMARK  102  A    between atoms: _242  and  _243
REMARK  103  A    between atoms: _242  and  _245
REMARK  104  A    between atoms: _245  and  _246
REMARK  105  A    between atoms: _246  and  _247
REMARK  106  A    between atoms: _252  and  _254
REMARK  107  A    between atoms: _254  and  _255
REMARK  108  A    between atoms: _257  and  _259
REMARK  109  A    between atoms: _259  and  _260
REMARK  110  A    between atoms: _259  and  _262
REMARK  111  A    between atoms: _262  and  _263
REMARK  112  A    between atoms: _266  and  _268
REMARK  113  A    between atoms: _268  and  _269
REMARK  114  A    between atoms: _268  and  _271
REMARK  115  A    between atoms: _271  and  _272
REMARK  116  A    between atoms: _274  and  _276
REMARK  117  A    between atoms: _276  and  _277
REMARK  118  A    between atoms: _279  and  _281
REMARK  119  A    between atoms: _281  and  _282
REMARK  120  A    between atoms: _284  and  _286
REMARK  121  A    between atoms: _286  and  _287
REMARK  122  A    between atoms: _286  and  _289
REMARK  123  A    between atoms: _292  and  _294
REMARK  124  A    between atoms: _294  and  _295
REMARK  125  A    between atoms: _294  and  _297
REMARK  126  A    between atoms: _300  and  _302
REMARK  127  A    between atoms: _302  and  _303
REMARK  128  A    between atoms: _302  and  _305
REMARK  129  A    between atoms: _305  and  _306
REMARK  130  A    between atoms: _308  and  _310
REMARK  131  A    between atoms: _310  and  _311
REMARK  132  A    between atoms: _310  and  _313
REMARK  133  A    between atoms: _313  and  _314
REMARK  134  A    between atoms: _324  and  _326
REMARK  135  A    between atoms: _326  and  _327
REMARK  136  A    between atoms: _329  and  _331
REMARK  137  A    between atoms: _331  and  _332
REMARK  138  A    between atoms: _331  and  _334
REMARK  139  A    between atoms: _334  and  _335
REMARK  140  A    between atoms: _335  and  _336
REMARK  141  A    between atoms: _339  and  _341
REMARK  142  A    between atoms: _341  and  _342
REMARK  143  A    between atoms: _344  and  _346
REMARK  144  A    between atoms: _346  and  _347
REMARK  145  A    between atoms: _346  and  _349
REMARK  146  A    between atoms: _349  and  _350
REMARK  147  A    between atoms: _351  and  _353
REMARK  148  A    between atoms: _353  and  _354
REMARK  149  A    between atoms: _357  and  _359
REMARK  150  A    between atoms: _359  and  _360
REMARK  151  A    between atoms: _359  and  _362
REMARK  152  A    between atoms: _362  and  _363
REMARK  153  A    between atoms: _363  and  _364
REMARK  154  A    between atoms: _369  and  _371
REMARK  155  A    between atoms: _371  and  _372
REMARK  156  A    between atoms: _371  and  _374
REMARK  157  A    between atoms: _374  and  _375
REMARK  158  A    between atoms: _375  and  _376
REMARK  159  A    between atoms: _376  and  _377
REMARK  160  A    between atoms: _387  and  _388
REMARK  161  A    between atoms: _393  and  _395
REMARK  162  A    between atoms: _395  and  _396
REMARK  163  A    between atoms: _398  and  _400
REMARK  164  A    between atoms: _400  and  _401
REMARK  165  A    between atoms: _400  and  _403
REMARK  166  A    between atoms: _403  and  _404
REMARK  167  A    between atoms: _407  and  _409
REMARK  168  A    between atoms: _409  and  _410
REMARK  169  A    between atoms: _409  and  _412
REMARK  170  A    between atoms: _412  and  _413
REMARK  171  A    between atoms: _418  and  _419
REMARK  172  A    between atoms: _423  and  _424
REMARK  173  A    between atoms: _427  and  _428
REMARK  174  A    between atoms: _433  and  _435
REMARK  175  A    between atoms: _435  and  _436
REMARK  176  A    between atoms: _435  and  _438
REMARK  177  A    between atoms: _438  and  _439
REMARK  178  A    between atoms: _442  and  _444
REMARK  179  A    between atoms: _444  and  _445
REMARK  180  A    between atoms: _444  and  _447
REMARK  181  A    between atoms: _447  and  _448
REMARK  182  A    between atoms: _448  and  _449
REMARK  183  A    between atoms: _449  and  _450
REMARK  184  A    between atoms: _450  and  _451
REMARK  185  A    between atoms: _455  and  _457
REMARK  186  A    between atoms: _457  and  _458
REMARK  187  A    between atoms: _457  and  _460
REMARK  188  A    between atoms: _460  and  _461
REMARK  189  A    between atoms: _467  and  _469
REMARK  190  A    between atoms: _469  and  _470
REMARK  191  A    between atoms: _469  and  _472
REMARK  192  A    between atoms: _472  and  _473
REMARK  193  A    between atoms: _478  and  _479
REMARK  194  A    between atoms: _481  and  _483
REMARK  195  A    between atoms: _483  and  _484
REMARK  196  A    between atoms: _483  and  _486
REMARK  197  A    between atoms: _486  and  _487
REMARK  198  A    between atoms: _490  and  _492
REMARK  199  A    between atoms: _492  and  _493
REMARK  200  A    between atoms: _496  and  _498
REMARK  201  A    between atoms: _498  and  _499
REMARK  202  A    between atoms: _498  and  _501
REMARK  203  A    between atoms: _501  and  _502
REMARK  204  A    between atoms: _502  and  _503
REMARK  205  A    between atoms: _508  and  _510
REMARK  206  A    between atoms: _510  and  _511
REMARK  207  A    between atoms: _510  and  _513
REMARK  208  A    between atoms: _513  and  _514
REMARK                            x       y       z     vdW  Elec       q    Type
REMARK                         _______ _______ _______ _____ _____    ______ ____
ROOT
ATOM      1  O   HOH     1      46.276 -12.326   4.922  0.00  0.00    +0.000 OA
ENDROOT
TORSDOF 0
REMARK  Name = ../refined-set-2016/3v7t/3v7t_pocket.pdb
REMARK  208 active torsions:
REMARK  status: ('A' for Active; 'I' for Inactive)
REMARK    1  A    between atoms: _1  and  _5
REMARK    2  A    between atoms: _5  and  _6
REMARK    3  A    between atoms: _5  and  _8
REMARK    4  A    between atoms: _8  and  _9
REMARK    5  A    between atoms: _12  and  _14
REMARK    6  A    between atoms: _14  and  _15
REMARK    7  A    between atoms: _14  and  _17
REMARK    8  A    between atoms: _20  and  _22
REMARK    9  A    between atoms: _22  and  _23
REMARK   10  A    between atoms: _22  and  _25
REMARK   11  A    between atoms: _25  and  _26
REMARK   12  A    between atoms: _32  and  _34
REMARK   13  A    between atoms: _34  and  _35
REMARK   14  A    between atoms: _34  and  _37
REMARK   15  A    between atoms: _37  and  _38
REMARK   16  A    between atoms: _38  and  _56
REMARK   17  A    between atoms: _39  and  _41
REMARK   18  A    between atoms: _41  and  _42
REMARK   19  A    between atoms: _41  and  _44
REMARK   20  A    between atoms: _44  and  _45
REMARK   21  A    between atoms: _50  and  _52
REMARK   22  A    between atoms: _52  and  _53
REMARK   23  A    between atoms: _52  and  _55
REMARK   24  A    between atoms: _55  and  _56
REMARK   25  A    between atoms: _57  and  _59
REMARK   26  A    between atoms: _59  and  _60
REMARK   27  A    between atoms: _59  and  _62
REMARK   28  A    between atoms: _62  and  _63
REMARK   29  A    between atoms: _66  and  _68
REMARK   30  A    between atoms: _68  and  _69
REMARK   31  A    between atoms: _72  and  _74
REMARK   32  A    between atoms: _74  and  _75
REMARK   33  A    between atoms: _74  and  _77
REMARK   34  A    between atoms: _77  and  _78
REMARK   35  A    between atoms: _78  and  _79
REMARK   36  A    between atoms: _84  and  _86
REMARK   37  A    between atoms: _86  and  _87
REMARK   38  A    between atoms: _86  and  _89
REMARK   39  A    between atoms: _89  and  _90
REMARK   40  A    between atoms: _93  and  _95
REMARK   41  A    between atoms: _95  and  _96
REMARK   42  A    between atoms: _95  and  _98
REMARK   43  A    between atoms: _98  and  _99
REMARK   44  A    between atoms: _102  and  _104
REMARK   45  A    between atoms: _104  and  _105
REMARK   46  A    between atoms: _104  and  _107
REMARK   47  A    between atoms: _110  and  _112
REMARK   48  A    between atoms: _112  and  _113
REMARK   49  A    between atoms: _112  and  _115
REMARK   50  A    between atoms: _115  and  _116
REMARK   51  A    between atoms: _119  and  _121
REMARK   52  A    between atoms: _121  and  _122
REMARK   53  A    between atoms: _121  and  _124
REMARK   54  A    between atoms: _124  and  _125
REMARK   55  A    between atoms: _130  and  _132
REMARK   56  A    between atoms: _132  and  _133
REMARK   57  A    between atoms: _132  and  _135
REMARK   58  A    between atoms: _135  and  _136
REMARK   59  A    between atoms: _139  and  _141
REMARK   60  A    between atoms: _141  and  _142
REMARK   61  A    between atoms: _141  and  _144
REMARK   62  A    between atoms: _144  and  _145
REMARK   63  A    between atoms: _150  and  _151
REMARK   64  A    between atoms: _153  and  _155
REMARK   65  A    between atoms: _155  and  _156
REMARK   66  A    between atoms: _159  and  _161
REMARK   67  A    between atoms: _161  and  _162
REMARK   68  A    between atoms: _161  and  _164
REMARK   69  A    between atoms: _164  and  _165
REMARK   70  A    between atoms: _168  and  _170
REMARK   71  A    between atoms: _170  and  _171
REMARK   72  A    between atoms: _170  and  _173
REMARK   73  A    between atoms: _173  and  _174
REMARK   74  A    between atoms: _177  and  _179
REMARK   75  A    between atoms: _179  and  _180
REMARK   76  A    between atoms: _183  and  _185
REMARK   77  A    between atoms: _185  and  _186
REMARK   78  A    between atoms: _188  and  _190
REMARK   79  A    between atoms: _190  and  _191
REMARK   80  A    between atoms: _190  and  _193
REMARK   81  A    between atoms: _193  and  _194
REMARK   82  A    between atoms: _199  and  _201
REMARK   83  A    between atoms: _201  and  _202
REMARK   84  A    between atoms: _201  and  _204
REMARK   85  A    between atoms: _204  and  _205
REMARK   86  A    between atoms: _205  and  _206
REMARK   87  A    between atoms: _206  and  _207
REMARK   88  A    between atoms: _216  and  _218
REMARK   89  A    between atoms: _218  and  _219
REMARK   90  A    between atoms: _218  and  _221
REMARK   91  A    between atoms: _221  and  _222
REMARK   92  A    between atoms: _225  and  _227
REMARK   93  A    between atoms: _227  and  _228
REMARK   94  A    between atoms: _227  and  _230
REMARK   95  A    between atoms: _230  and  _231
REMARK   96  A    between atoms: _233  and  _235
REMARK   97  A    between atoms: _235  and  _236
REMARK   98  A    between atoms: _235  and  _238
REMARK   99  A    between atoms: _238  and  _239
REMARK  100  A    between atoms: _239  and  _350
REMARK  101  A    between atoms: _240  and  _242
REMARK  102  A    between atoms: _242  and  _243
REMARK  103  A    between atoms: _242  and  _245
REMARK  104  A    between atoms: _245  and  _246
REMARK  105  A    between atoms: _246  and  _247
REMARK  106  A    between atoms: _252  and  _254
REMARK  107  A    between atoms: _254  and  _255
REMARK  108  A    between atoms: _257  and  _259
REMARK  109  A    between atoms: _259  and  _260
REMARK  110  A    between atoms: _259  and  _262
REMARK  111  A    between atoms: _262  and  _263
REMARK  112  A    between atoms: _266  and  _268
REMARK  113  A    between atoms: _268  and  _269
REMARK  114  A    between atoms: _268  and  _271
REMARK  115  A    between atoms: _271  and  _272
REMARK  116  A    between atoms: _274  and  _276
REMARK  117  A    between atoms: _276  and  _277
REMARK  118  A    between atoms: _279  and  _281
REMARK  119  A    between atoms: _281  and  _282
REMARK  120  A    between atoms: _284  and  _286
REMARK  121  A    between atoms: _286  and  _287
REMARK  122  A    between atoms: _286  and  _289
REMARK  123  A    between atoms: _292  and  _294
REMARK  124  A    between atoms: _294  and  _295
REMARK  125  A    between atoms: _294  and  _297
REMARK  126  A    between atoms: _300  and  _302
REMARK  127  A    between atoms: _302  and  _303
REMARK  128  A    between atoms: _302  and  _305
REMARK  129  A    between atoms: _305  and  _306
REMARK  130  A    between atoms: _308  and  _310
REMARK  131  A    between atoms: _310  and  _311
REMARK  132  A    between atoms: _310  and  _313
REMARK  133  A    between atoms: _313  and  _314
REMARK  134  A    between atoms: _324  and  _326
REMARK  135  A    between atoms: _326  and  _327
REMARK  136  A    between atoms: _329  and  _331
REMARK  137  A    between atoms: _331  and  _332
REMARK  138  A    between atoms: _331  and  _334
REMARK  139  A    between atoms: _334  and  _335
REMARK  140  A    between atoms: _335  and  _336
REMARK  141  A    between atoms: _339  and  _341
REMARK  142  A    between atoms: _341  and  _342
REMARK  143  A    between atoms: _344  and  _346
REMARK  144  A    between atoms: _346  and  _347
REMARK  145  A    between atoms: _346  and  _349
REMARK  146  A    between atoms: _349  and  _350
REMARK  147  A    between atoms: _351  and  _353
REMARK  148  A    between atoms: _353  and  _354
REMARK  149  A    between atoms: _357  and  _359
REMARK  150  A    between atoms: _359  and  _360
REMARK  151  A    between atoms: _359  and  _362
REMARK  152  A    between atoms: _362  and  _363
REMARK  153  A    between atoms: _363  and  _364
REMARK  154  A    between atoms: _369  and  _371
REMARK  155  A    between atoms: _371  and  _372
REMARK  156  A    between atoms: _371  and  _374
REMARK  157  A    between atoms: _374  and  _375
REMARK  158  A    between atoms: _375  and  _376
REMARK  159  A    between atoms: _376  and  _377
REMARK  160  A    between atoms: _387  and  _388
REMARK  161  A    between atoms: _393  and  _395
REMARK  162  A    between atoms: _395  and  _396
REMARK  163  A    between atoms: _398  and  _400
REMARK  164  A    between atoms: _400  and  _401
REMARK  165  A    between atoms: _400  and  _403
REMARK  166  A    between atoms: _403  and  _404
REMARK  167  A    between atoms: _407  and  _409
REMARK  168  A    between atoms: _409  and  _410
REMARK  169  A    between atoms: _409  and  _412
REMARK  170  A    between atoms: _412  and  _413
REMARK  171  A    between atoms: _418  and  _419
REMARK  172  A    between atoms: _423  and  _424
REMARK  173  A    between atoms: _427  and  _428
REMARK  174  A    between atoms: _433  and  _435
REMARK  175  A    between atoms: _435  and  _436
REMARK  176  A    between atoms: _435  and  _438
REMARK  177  A    between atoms: _438  and  _439
REMARK  178  A    between atoms: _442  and  _444
REMARK  179  A    between atoms: _444  and  _445
REMARK  180  A    between atoms: _444  and  _447
REMARK  181  A    between atoms: _447  and  _448
REMARK  182  A    between atoms: _448  and  _449
REMARK  183  A    between atoms: _449  and  _450
REMARK  184  A    between atoms: _450  and  _451
REMARK  185  A    between atoms: _455  and  _457
REMARK  186  A    between atoms: _457  and  _458
REMARK  187  A    between atoms: _457  and  _460
REMARK  188  A    between atoms: _460  and  _461
REMARK  189  A    between atoms: _467  and  _469
REMARK  190  A    between atoms: _469  and  _470
REMARK  191  A    between atoms: _469  and  _472
REMARK  192  A    between atoms: _472  and  _473
REMARK  193  A    between atoms: _478  and  _479
REMARK  194  A    between atoms: _481  and  _483
REMARK  195  A    between atoms: _483  and  _484
REMARK  196  A    between atoms: _483  and  _486
REMARK  197  A    between atoms: _486  and  _487
REMARK  198  A    between atoms: _490  and  _492
REMARK  199  A    between atoms: _492  and  _493
REMARK  200  A    between atoms: _496  and  _498
REMARK  201  A    between atoms: _498  and  _499
REMARK  202  A    between atoms: _498  and  _501
REMARK  203  A    between atoms: _501  and  _502
REMARK  204  A    between atoms: _502  and  _503
REMARK  205  A    between atoms: _508  and  _510
REMARK  206  A    between atoms: _510  and  _511
REMARK  207  A    between atoms: _510  and  _513
REMARK  208  A    between atoms: _513  and  _514
REMARK                            x       y       z     vdW  Elec       q    Type
REMARK                         _______ _______ _______ _____ _____    ______ ____
ROOT
ATOM      1  O   HOH     1      51.247  -5.689  -2.148  0.00  0.00    +0.000 OA
ENDROOT
TORSDOF 0
REMARK  Name = ../refined-set-2016/3v7t/3v7t_pocket.pdb
REMARK  208 active torsions:
REMARK  status: ('A' for Active; 'I' for Inactive)
REMARK    1  A    between atoms: _1  and  _5
REMARK    2  A    between atoms: _5  and  _6
REMARK    3  A    between atoms: _5  and  _8
REMARK    4  A    between atoms: _8  and  _9
REMARK    5  A    between atoms: _12  and  _14
REMARK    6  A    between atoms: _14  and  _15
REMARK    7  A    between atoms: _14  and  _17
REMARK    8  A    between atoms: _20  and  _22
REMARK    9  A    between atoms: _22  and  _23
REMARK   10  A    between atoms: _22  and  _25
REMARK   11  A    between atoms: _25  and  _26
REMARK   12  A    between atoms: _32  and  _34
REMARK   13  A    between atoms: _34  and  _35
REMARK   14  A    between atoms: _34  and  _37
REMARK   15  A    between atoms: _37  and  _38
REMARK   16  A    between atoms: _38  and  _56
REMARK   17  A    between atoms: _39  and  _41
REMARK   18  A    between atoms: _41  and  _42
REMARK   19  A    between atoms: _41  and  _44
REMARK   20  A    between atoms: _44  and  _45
REMARK   21  A    between atoms: _50  and  _52
REMARK   22  A    between atoms: _52  and  _53
REMARK   23  A    between atoms: _52  and  _55
REMARK   24  A    between atoms: _55  and  _56
REMARK   25  A    between atoms: _57  and  _59
REMARK   26  A    between atoms: _59  and  _60
REMARK   27  A    between atoms: _59  and  _62
REMARK   28  A    between atoms: _62  and  _63
REMARK   29  A    between atoms: _66  and  _68
REMARK   30  A    between atoms: _68  and  _69
REMARK   31  A    between atoms: _72  and  _74
REMARK   32  A    between atoms: _74  and  _75
REMARK   33  A    between atoms: _74  and  _77
REMARK   34  A    between atoms: _77  and  _78
REMARK   35  A    between atoms: _78  and  _79
REMARK   36  A    between atoms: _84  and  _86
REMARK   37  A    between atoms: _86  and  _87
REMARK   38  A    between atoms: _86  and  _89
REMARK   39  A    between atoms: _89  and  _90
REMARK   40  A    between atoms: _93  and  _95
REMARK   41  A    between atoms: _95  and  _96
REMARK   42  A    between atoms: _95  and  _98
REMARK   43  A    between atoms: _98  and  _99
REMARK   44  A    between atoms: _102  and  _104
REMARK   45  A    between atoms: _104  and  _105
REMARK   46  A    between atoms: _104  and  _107
REMARK   47  A    between atoms: _110  and  _112
REMARK   48  A    between atoms: _112  and  _113
REMARK   49  A    between atoms: _112  and  _115
REMARK   50  A    between atoms: _115  and  _116
REMARK   51  A    between atoms: _119  and  _121
REMARK   52  A    between atoms: _121  and  _122
REMARK   53  A    between atoms: _121  and  _124
REMARK   54  A    between atoms: _124  and  _125
REMARK   55  A    between atoms: _130  and  _132
REMARK   56  A    between atoms: _132  and  _133
REMARK   57  A    between atoms: _132  and  _135
REMARK   58  A    between atoms: _135  and  _136
REMARK   59  A    between atoms: _139  and  _141
REMARK   60  A    between atoms: _141  and  _142
REMARK   61  A    between atoms: _141  and  _144
REMARK   62  A    between atoms: _144  and  _145
REMARK   63  A    between atoms: _150  and  _151
REMARK   64  A    between atoms: _153  and  _155
REMARK   65  A    between atoms: _155  and  _156
REMARK   66  A    between atoms: _159  and  _161
REMARK   67  A    between atoms: _161  and  _162
REMARK   68  A    between atoms: _161  and  _164
REMARK   69  A    between atoms: _164  and  _165
REMARK   70  A    between atoms: _168  and  _170
REMARK   71  A    between atoms: _170  and  _171
REMARK   72  A    between atoms: _170  and  _173
REMARK   73  A    between atoms: _173  and  _174
REMARK   74  A    between atoms: _177  and  _179
REMARK   75  A    between atoms: _179  and  _180
REMARK   76  A    between atoms: _183  and  _185
REMARK   77  A    between atoms: _185  and  _186
REMARK   78  A    between atoms: _188  and  _190
REMARK   79  A    between atoms: _190  and  _191
REMARK   80  A    between atoms: _190  and  _193
REMARK   81  A    between atoms: _193  and  _194
REMARK   82  A    between atoms: _199  and  _201
REMARK   83  A    between atoms: _201  and  _202
REMARK   84  A    between atoms: _201  and  _204
REMARK   85  A    between atoms: _204  and  _205
REMARK   86  A    between atoms: _205  and  _206
REMARK   87  A    between atoms: _206  and  _207
REMARK   88  A    between atoms: _216  and  _218
REMARK   89  A    between atoms: _218  and  _219
REMARK   90  A    between atoms: _218  and  _221
REMARK   91  A    between atoms: _221  and  _222
REMARK   92  A    between atoms: _225  and  _227
REMARK   93  A    between atoms: _227  and  _228
REMARK   94  A    between atoms: _227  and  _230
REMARK   95  A    between atoms: _230  and  _231
REMARK   96  A    between atoms: _233  and  _235
REMARK   97  A    between atoms: _235  and  _236
REMARK   98  A    between atoms: _235  and  _238
REMARK   99  A    between atoms: _238  and  _239
REMARK  100  A    between atoms: _239  and  _350
REMARK  101  A    between atoms: _240  and  _242
REMARK  102  A    between atoms: _242  and  _243
REMARK  103  A    between atoms: _242  and  _245
REMARK  104  A    between atoms: _245  and  _246
REMARK  105  A    between atoms: _246  and  _247
REMARK  106  A    between atoms: _252  and  _254
REMARK  107  A    between atoms: _254  and  _255
REMARK  108  A    between atoms: _257  and  _259
REMARK  109  A    between atoms: _259  and  _260
REMARK  110  A    between atoms: _259  and  _262
REMARK  111  A    between atoms: _262  and  _263
REMARK  112  A    between atoms: _266  and  _268
REMARK  113  A    between atoms: _268  and  _269
REMARK  114  A    between atoms: _268  and  _271
REMARK  115  A    between atoms: _271  and  _272
REMARK  116  A    between atoms: _274  and  _276
REMARK  117  A    between atoms: _276  and  _277
REMARK  118  A    between atoms: _279  and  _281
REMARK  119  A    between atoms: _281  and  _282
REMARK  120  A    between atoms: _284  and  _286
REMARK  121  A    between atoms: _286  and  _287
REMARK  122  A    between atoms: _286  and  _289
REMARK  123  A    between atoms: _292  and  _294
REMARK  124  A    between atoms: _294  and  _295
REMARK  125  A    between atoms: _294  and  _297
REMARK  126  A    between atoms: _300  and  _302
REMARK  127  A    between atoms: _302  and  _303
REMARK  128  A    between atoms: _302  and  _305
REMARK  129  A    between atoms: _305  and  _306
REMARK  130  A    between atoms: _308  and  _310
REMARK  131  A    between atoms: _310  and  _311
REMARK  132  A    between atoms: _310  and  _313
REMARK  133  A    between atoms: _313  and  _314
REMARK  134  A    between atoms: _324  and  _326
REMARK  135  A    between atoms: _326  and  _327
REMARK  136  A    between atoms: _329  and  _331
REMARK  137  A    between atoms: _331  and  _332
REMARK  138  A    between atoms: _331  and  _334
REMARK  139  A    between atoms: _334  and  _335
REMARK  140  A    between atoms: _335  and  _336
REMARK  141  A    between atoms: _339  and  _341
REMARK  142  A    between atoms: _341  and  _342
REMARK  143  A    between atoms: _344  and  _346
REMARK  144  A    between atoms: _346  and  _347
REMARK  145  A    between atoms: _346  and  _349
REMARK  146  A    between atoms: _349  and  _350
REMARK  147  A    between atoms: _351  and  _353
REMARK  148  A    between atoms: _353  and  _354
REMARK  149  A    between atoms: _357  and  _359
REMARK  150  A    between atoms: _359  and  _360
REMARK  151  A    between atoms: _359  and  _362
REMARK  152  A    between atoms: _362  and  _363
REMARK  153  A    between atoms: _363  and  _364
REMARK  154  A    between atoms: _369  and  _371
REMARK  155  A    between atoms: _371  and  _372
REMARK  156  A    between atoms: _371  and  _374
REMARK  157  A    between atoms: _374  and  _375
REMARK  158  A    between atoms: _375  and  _376
REMARK  159  A    between atoms: _376  and  _377
REMARK  160  A    between atoms: _387  and  _388
REMARK  161  A    between atoms: _393  and  _395
REMARK  162  A    between atoms: _395  and  _396
REMARK  163  A    between atoms: _398  and  _400
REMARK  164  A    between atoms: _400  and  _401
REMARK  165  A    between atoms: _400  and  _403
REMARK  166  A    between atoms: _403  and  _404
REMARK  167  A    between atoms: _407  and  _409
REMARK  168  A    between atoms: _409  and  _410
REMARK  169  A    between atoms: _409  and  _412
REMARK  170  A    between atoms: _412  and  _413
REMARK  171  A    between atoms: _418  and  _419
REMARK  172  A    between atoms: _423  and  _424
REMARK  173  A    between atoms: _427  and  _428
REMARK  174  A    between atoms: _433  and  _435
REMARK  175  A    between atoms: _435  and  _436
REMARK  176  A    between atoms: _435  and  _438
REMARK  177  A    between atoms: _438  and  _439
REMARK  178  A    between atoms: _442  and  _444
REMARK  179  A    between atoms: _444  and  _445
REMARK  180  A    between atoms: _444  and  _447
REMARK  181  A    between atoms: _447  and  _448
REMARK  182  A    between atoms: _448  and  _449
REMARK  183  A    between atoms: _449  and  _450
REMARK  184  A    between atoms: _450  and  _451
REMARK  185  A    between atoms: _455  and  _457
REMARK  186  A    between atoms: _457  and  _458
REMARK  187  A    between atoms: _457  and  _460
REMARK  188  A    between atoms: _460  and  _461
REMARK  189  A    between atoms: _467  and  _469
REMARK  190  A    between atoms: _469  and  _470
REMARK  191  A    between atoms: _469  and  _472
REMARK  192  A    between atoms: _472  and  _473
REMARK  193  A    between atoms: _478  and  _479
REMARK  194  A    between atoms: _481  and  _483
REMARK  195  A    between atoms: _483  and  _484
REMARK  196  A    between atoms: _483  and  _486
REMARK  197  A    between atoms: _486  and  _487
REMARK  198  A    between atoms: _490  and  _492
REMARK  199  A    between atoms: _492  and  _493
REMARK  200  A    between atoms: _496  and  _498
REMARK  201  A    between atoms: _498  and  _499
REMARK  202  A    between atoms: _498  and  _501
REMARK  203  A    between atoms: _501  and  _502
REMARK  204  A    between atoms: _502  and  _503
REMARK  205  A    between atoms: _508  and  _510
REMARK  206  A    between atoms: _510  and  _511
REMARK  207  A    between atoms: _510  and  _513
REMARK  208  A    between atoms: _513  and  _514
REMARK                            x       y       z     vdW  Elec       q    Type
REMARK                         _______ _______ _______ _____ _____    ______ ____
ROOT
ATOM      1  O   HOH     1      51.296  -6.660  -4.711  0.00  0.00    +0.000 OA
ENDROOT
TORSDOF 0
REMARK  Name = ../refined-set-2016/3v7t/3v7t_pocket.pdb
REMARK  208 active torsions:
REMARK  status: ('A' for Active; 'I' for Inactive)
REMARK    1  A    between atoms: _1  and  _5
REMARK    2  A    between atoms: _5  and  _6
REMARK    3  A    between atoms: _5  and  _8
REMARK    4  A    between atoms: _8  and  _9
REMARK    5  A    between atoms: _12  and  _14
REMARK    6  A    between atoms: _14  and  _15
REMARK    7  A    between atoms: _14  and  _17
REMARK    8  A    between atoms: _20  and  _22
REMARK    9  A    between atoms: _22  and  _23
REMARK   10  A    between atoms: _22  and  _25
REMARK   11  A    between atoms: _25  and  _26
REMARK   12  A    between atoms: _32  and  _34
REMARK   13  A    between atoms: _34  and  _35
REMARK   14  A    between atoms: _34  and  _37
REMARK   15  A    between atoms: _37  and  _38
REMARK   16  A    between atoms: _38  and  _56
REMARK   17  A    between atoms: _39  and  _41
REMARK   18  A    between atoms: _41  and  _42
REMARK   19  A    between atoms: _41  and  _44
REMARK   20  A    between atoms: _44  and  _45
REMARK   21  A    between atoms: _50  and  _52
REMARK   22  A    between atoms: _52  and  _53
REMARK   23  A    between atoms: _52  and  _55
REMARK   24  A    between atoms: _55  and  _56
REMARK   25  A    between atoms: _57  and  _59
REMARK   26  A    between atoms: _59  and  _60
REMARK   27  A    between atoms: _59  and  _62
REMARK   28  A    between atoms: _62  and  _63
REMARK   29  A    between atoms: _66  and  _68
REMARK   30  A    between atoms: _68  and  _69
REMARK   31  A    between atoms: _72  and  _74
REMARK   32  A    between atoms: _74  and  _75
REMARK   33  A    between atoms: _74  and  _77
REMARK   34  A    between atoms: _77  and  _78
REMARK   35  A    between atoms: _78  and  _79
REMARK   36  A    between atoms: _84  and  _86
REMARK   37  A    between atoms: _86  and  _87
REMARK   38  A    between atoms: _86  and  _89
REMARK   39  A    between atoms: _89  and  _90
REMARK   40  A    between atoms: _93  and  _95
REMARK   41  A    between atoms: _95  and  _96
REMARK   42  A    between atoms: _95  and  _98
REMARK   43  A    between atoms: _98  and  _99
REMARK   44  A    between atoms: _102  and  _104
REMARK   45  A    between atoms: _104  and  _105
REMARK   46  A    between atoms: _104  and  _107
REMARK   47  A    between atoms: _110  and  _112
REMARK   48  A    between atoms: _112  and  _113
REMARK   49  A    between atoms: _112  and  _115
REMARK   50  A    between atoms: _115  and  _116
REMARK   51  A    between atoms: _119  and  _121
REMARK   52  A    between atoms: _121  and  _122
REMARK   53  A    between atoms: _121  and  _124
REMARK   54  A    between atoms: _124  and  _125
REMARK   55  A    between atoms: _130  and  _132
REMARK   56  A    between atoms: _132  and  _133
REMARK   57  A    between atoms: _132  and  _135
REMARK   58  A    between atoms: _135  and  _136
REMARK   59  A    between atoms: _139  and  _141
REMARK   60  A    between atoms: _141  and  _142
REMARK   61  A    between atoms: _141  and  _144
REMARK   62  A    between atoms: _144  and  _145
REMARK   63  A    between atoms: _150  and  _151
REMARK   64  A    between atoms: _153  and  _155
REMARK   65  A    between atoms: _155  and  _156
REMARK   66  A    between atoms: _159  and  _161
REMARK   67  A    between atoms: _161  and  _162
REMARK   68  A    between atoms: _161  and  _164
REMARK   69  A    between atoms: _164  and  _165
REMARK   70  A    between atoms: _168  and  _170
REMARK   71  A    between atoms: _170  and  _171
REMARK   72  A    between atoms: _170  and  _173
REMARK   73  A    between atoms: _173  and  _174
REMARK   74  A    between atoms: _177  and  _179
REMARK   75  A    between atoms: _179  and  _180
REMARK   76  A    between atoms: _183  and  _185
REMARK   77  A    between atoms: _185  and  _186
REMARK   78  A    between atoms: _188  and  _190
REMARK   79  A    between atoms: _190  and  _191
REMARK   80  A    between atoms: _190  and  _193
REMARK   81  A    between atoms: _193  and  _194
REMARK   82  A    between atoms: _199  and  _201
REMARK   83  A    between atoms: _201  and  _202
REMARK   84  A    between atoms: _201  and  _204
REMARK   85  A    between atoms: _204  and  _205
REMARK   86  A    between atoms: _205  and  _206
REMARK   87  A    between atoms: _206  and  _207
REMARK   88  A    between atoms: _216  and  _218
REMARK   89  A    between atoms: _218  and  _219
REMARK   90  A    between atoms: _218  and  _221
REMARK   91  A    between atoms: _221  and  _222
REMARK   92  A    between atoms: _225  and  _227
REMARK   93  A    between atoms: _227  and  _228
REMARK   94  A    between atoms: _227  and  _230
REMARK   95  A    between atoms: _230  and  _231
REMARK   96  A    between atoms: _233  and  _235
REMARK   97  A    between atoms: _235  and  _236
REMARK   98  A    between atoms: _235  and  _238
REMARK   99  A    between atoms: _238  and  _239
REMARK  100  A    between atoms: _239  and  _350
REMARK  101  A    between atoms: _240  and  _242
REMARK  102  A    between atoms: _242  and  _243
REMARK  103  A    between atoms: _242  and  _245
REMARK  104  A    between atoms: _245  and  _246
REMARK  105  A    between atoms: _246  and  _247
REMARK  106  A    between atoms: _252  and  _254
REMARK  107  A    between atoms: _254  and  _255
REMARK  108  A    between atoms: _257  and  _259
REMARK  109  A    between atoms: _259  and  _260
REMARK  110  A    between atoms: _259  and  _262
REMARK  111  A    between atoms: _262  and  _263
REMARK  112  A    between atoms: _266  and  _268
REMARK  113  A    between atoms: _268  and  _269
REMARK  114  A    between atoms: _268  and  _271
REMARK  115  A    between atoms: _271  and  _272
REMARK  116  A    between atoms: _274  and  _276
REMARK  117  A    between atoms: _276  and  _277
REMARK  118  A    between atoms: _279  and  _281
REMARK  119  A    between atoms: _281  and  _282
REMARK  120  A    between atoms: _284  and  _286
REMARK  121  A    between atoms: _286  and  _287
REMARK  122  A    between atoms: _286  and  _289
REMARK  123  A    between atoms: _292  and  _294
REMARK  124  A    between atoms: _294  and  _295
REMARK  125  A    between atoms: _294  and  _297
REMARK  126  A    between atoms: _300  and  _302
REMARK  127  A    between atoms: _302  and  _303
REMARK  128  A    between atoms: _302  and  _305
REMARK  129  A    between atoms: _305  and  _306
REMARK  130  A    between atoms: _308  and  _310
REMARK  131  A    between atoms: _310  and  _311
REMARK  132  A    between atoms: _310  and  _313
REMARK  133  A    between atoms: _313  and  _314
REMARK  134  A    between atoms: _324  and  _326
REMARK  135  A    between atoms: _326  and  _327
REMARK  136  A    between atoms: _329  and  _331
REMARK  137  A    between atoms: _331  and  _332
REMARK  138  A    between atoms: _331  and  _334
REMARK  139  A    between atoms: _334  and  _335
REMARK  140  A    between atoms: _335  and  _336
REMARK  141  A    between atoms: _339  and  _341
REMARK  142  A    between atoms: _341  and  _342
REMARK  143  A    between atoms: _344  and  _346
REMARK  144  A    between atoms: _346  and  _347
REMARK  145  A    between atoms: _346  and  _349
REMARK  146  A    between atoms: _349  and  _350
REMARK  147  A    between atoms: _351  and  _353
REMARK  148  A    between atoms: _353  and  _354
REMARK  149  A    between atoms: _357  and  _359
REMARK  150  A    between atoms: _359  and  _360
REMARK  151  A    between atoms: _359  and  _362
REMARK  152  A    between atoms: _362  and  _363
REMARK  153  A    between atoms: _363  and  _364
REMARK  154  A    between atoms: _369  and  _371
REMARK  155  A    between atoms: _371  and  _372
REMARK  156  A    between atoms: _371  and  _374
REMARK  157  A    between atoms: _374  and  _375
REMARK  158  A    between atoms: _375  and  _376
REMARK  159  A    between atoms: _376  and  _377
REMARK  160  A    between atoms: _387  and  _388
REMARK  161  A    between atoms: _393  and  _395
REMARK  162  A    between atoms: _395  and  _396
REMARK  163  A    between atoms: _398  and  _400
REMARK  164  A    between atoms: _400  and  _401
REMARK  165  A    between atoms: _400  and  _403
REMARK  166  A    between atoms: _403  and  _404
REMARK  167  A    between atoms: _407  and  _409
REMARK  168  A    between atoms: _409  and  _410
REMARK  169  A    between atoms: _409  and  _412
REMARK  170  A    between atoms: _412  and  _413
REMARK  171  A    between atoms: _418  and  _419
REMARK  172  A    between atoms: _423  and  _424
REMARK  173  A    between atoms: _427  and  _428
REMARK  174  A    between atoms: _433  and  _435
REMARK  175  A    between atoms: _435  and  _436
REMARK  176  A    between atoms: _435  and  _438
REMARK  177  A    between atoms: _438  and  _439
REMARK  178  A    between atoms: _442  and  _444
REMARK  179  A    between atoms: _444  and  _445
REMARK  180  A    between atoms: _444  and  _447
REMARK  181  A    between atoms: _447  and  _448
REMARK  182  A    between atoms: _448  and  _449
REMARK  183  A    between atoms: _449  and  _450
REMARK  184  A    between atoms: _450  and  _451
REMARK  185  A    between atoms: _455  and  _457
REMARK  186  A    between atoms: _457  and  _458
REMARK  187  A    between atoms: _457  and  _460
REMARK  188  A    between atoms: _460  and  _461
REMARK  189  A    between atoms: _467  and  _469
REMARK  190  A    between atoms: _469  and  _470
REMARK  191  A    between atoms: _469  and  _472
REMARK  192  A    between atoms: _472  and  _473
REMARK  193  A    between atoms: _478  and  _479
REMARK  194  A    between atoms: _481  and  _483
REMARK  195  A    between atoms: _483  and  _484
REMARK  196  A    between atoms: _483  and  _486
REMARK  197  A    between atoms: _486  and  _487
REMARK  198  A    between atoms: _490  and  _492
REMARK  199  A    between atoms: _492  and  _493
REMARK  200  A    between atoms: _496  and  _498
REMARK  201  A    between atoms: _498  and  _499
REMARK  202  A    between atoms: _498  and  _501
REMARK  203  A    between atoms: _501  and  _502
REMARK  204  A    between atoms: _502  and  _503
REMARK  205  A    between atoms: _508  and  _510
REMARK  206  A    between atoms: _510  and  _511
REMARK  207  A    between atoms: _510  and  _513
REMARK  208  A    between atoms: _513  and  _514
REMARK                            x       y       z     vdW  Elec       q    Type
REMARK                         _______ _______ _______ _____ _____    ______ ____
ROOT
ATOM      1  O   HOH     1      49.366  -5.208   1.708  0.00  0.00    +0.000 OA
ENDROOT
TORSDOF 0
REMARK  Name = ../refined-set-2016/3v7t/3v7t_pocket.pdb
REMARK  208 active torsions:
REMARK  status: ('A' for Active; 'I' for Inactive)
REMARK    1  A    between atoms: _1  and  _5
REMARK    2  A    between atoms: _5  and  _6
REMARK    3  A    between atoms: _5  and  _8
REMARK    4  A    between atoms: _8  and  _9
REMARK    5  A    between atoms: _12  and  _14
REMARK    6  A    between atoms: _14  and  _15
REMARK    7  A    between atoms: _14  and  _17
REMARK    8  A    between atoms: _20  and  _22
REMARK    9  A    between atoms: _22  and  _23
REMARK   10  A    between atoms: _22  and  _25
REMARK   11  A    between atoms: _25  and  _26
REMARK   12  A    between atoms: _32  and  _34
REMARK   13  A    between atoms: _34  and  _35
REMARK   14  A    between atoms: _34  and  _37
REMARK   15  A    between atoms: _37  and  _38
REMARK   16  A    between atoms: _38  and  _56
REMARK   17  A    between atoms: _39  and  _41
REMARK   18  A    between atoms: _41  and  _42
REMARK   19  A    between atoms: _41  and  _44
REMARK   20  A    between atoms: _44  and  _45
REMARK   21  A    between atoms: _50  and  _52
REMARK   22  A    between atoms: _52  and  _53
REMARK   23  A    between atoms: _52  and  _55
REMARK   24  A    between atoms: _55  and  _56
REMARK   25  A    between atoms: _57  and  _59
REMARK   26  A    between atoms: _59  and  _60
REMARK   27  A    between atoms: _59  and  _62
REMARK   28  A    between atoms: _62  and  _63
REMARK   29  A    between atoms: _66  and  _68
REMARK   30  A    between atoms: _68  and  _69
REMARK   31  A    between atoms: _72  and  _74
REMARK   32  A    between atoms: _74  and  _75
REMARK   33  A    between atoms: _74  and  _77
REMARK   34  A    between atoms: _77  and  _78
REMARK   35  A    between atoms: _78  and  _79
REMARK   36  A    between atoms: _84  and  _86
REMARK   37  A    between atoms: _86  and  _87
REMARK   38  A    between atoms: _86  and  _89
REMARK   39  A    between atoms: _89  and  _90
REMARK   40  A    between atoms: _93  and  _95
REMARK   41  A    between atoms: _95  and  _96
REMARK   42  A    between atoms: _95  and  _98
REMARK   43  A    between atoms: _98  and  _99
REMARK   44  A    between atoms: _102  and  _104
REMARK   45  A    between atoms: _104  and  _105
REMARK   46  A    between atoms: _104  and  _107
REMARK   47  A    between atoms: _110  and  _112
REMARK   48  A    between atoms: _112  and  _113
REMARK   49  A    between atoms: _112  and  _115
REMARK   50  A    between atoms: _115  and  _116
REMARK   51  A    between atoms: _119  and  _121
REMARK   52  A    between atoms: _121  and  _122
REMARK   53  A    between atoms: _121  and  _124
REMARK   54  A    between atoms: _124  and  _125
REMARK   55  A    between atoms: _130  and  _132
REMARK   56  A    between atoms: _132  and  _133
REMARK   57  A    between atoms: _132  and  _135
REMARK   58  A    between atoms: _135  and  _136
REMARK   59  A    between atoms: _139  and  _141
REMARK   60  A    between atoms: _141  and  _142
REMARK   61  A    between atoms: _141  and  _144
REMARK   62  A    between atoms: _144  and  _145
REMARK   63  A    between atoms: _150  and  _151
REMARK   64  A    between atoms: _153  and  _155
REMARK   65  A    between atoms: _155  and  _156
REMARK   66  A    between atoms: _159  and  _161
REMARK   67  A    between atoms: _161  and  _162
REMARK   68  A    between atoms: _161  and  _164
REMARK   69  A    between atoms: _164  and  _165
REMARK   70  A    between atoms: _168  and  _170
REMARK   71  A    between atoms: _170  and  _171
REMARK   72  A    between atoms: _170  and  _173
REMARK   73  A    between atoms: _173  and  _174
REMARK   74  A    between atoms: _177  and  _179
REMARK   75  A    between atoms: _179  and  _180
REMARK   76  A    between atoms: _183  and  _185
REMARK   77  A    between atoms: _185  and  _186
REMARK   78  A    between atoms: _188  and  _190
REMARK   79  A    between atoms: _190  and  _191
REMARK   80  A    between atoms: _190  and  _193
REMARK   81  A    between atoms: _193  and  _194
REMARK   82  A    between atoms: _199  and  _201
REMARK   83  A    between atoms: _201  and  _202
REMARK   84  A    between atoms: _201  and  _204
REMARK   85  A    between atoms: _204  and  _205
REMARK   86  A    between atoms: _205  and  _206
REMARK   87  A    between atoms: _206  and  _207
REMARK   88  A    between atoms: _216  and  _218
REMARK   89  A    between atoms: _218  and  _219
REMARK   90  A    between atoms: _218  and  _221
REMARK   91  A    between atoms: _221  and  _222
REMARK   92  A    between atoms: _225  and  _227
REMARK   93  A    between atoms: _227  and  _228
REMARK   94  A    between atoms: _227  and  _230
REMARK   95  A    between atoms: _230  and  _231
REMARK   96  A    between atoms: _233  and  _235
REMARK   97  A    between atoms: _235  and  _236
REMARK   98  A    between atoms: _235  and  _238
REMARK   99  A    between atoms: _238  and  _239
REMARK  100  A    between atoms: _239  and  _350
REMARK  101  A    between atoms: _240  and  _242
REMARK  102  A    between atoms: _242  and  _243
REMARK  103  A    between atoms: _242  and  _245
REMARK  104  A    between atoms: _245  and  _246
REMARK  105  A    between atoms: _246  and  _247
REMARK  106  A    between atoms: _252  and  _254
REMARK  107  A    between atoms: _254  and  _255
REMARK  108  A    between atoms: _257  and  _259
REMARK  109  A    between atoms: _259  and  _260
REMARK  110  A    between atoms: _259  and  _262
REMARK  111  A    between atoms: _262  and  _263
REMARK  112  A    between atoms: _266  and  _268
REMARK  113  A    between atoms: _268  and  _269
REMARK  114  A    between atoms: _268  and  _271
REMARK  115  A    between atoms: _271  and  _272
REMARK  116  A    between atoms: _274  and  _276
REMARK  117  A    between atoms: _276  and  _277
REMARK  118  A    between atoms: _279  and  _281
REMARK  119  A    between atoms: _281  and  _282
REMARK  120  A    between atoms: _284  and  _286
REMARK  121  A    between atoms: _286  and  _287
REMARK  122  A    between atoms: _286  and  _289
REMARK  123  A    between atoms: _292  and  _294
REMARK  124  A    between atoms: _294  and  _295
REMARK  125  A    between atoms: _294  and  _297
REMARK  126  A    between atoms: _300  and  _302
REMARK  127  A    between atoms: _302  and  _303
REMARK  128  A    between atoms: _302  and  _305
REMARK  129  A    between atoms: _305  and  _306
REMARK  130  A    between atoms: _308  and  _310
REMARK  131  A    between atoms: _310  and  _311
REMARK  132  A    between atoms: _310  and  _313
REMARK  133  A    between atoms: _313  and  _314
REMARK  134  A    between atoms: _324  and  _326
REMARK  135  A    between atoms: _326  and  _327
REMARK  136  A    between atoms: _329  and  _331
REMARK  137  A    between atoms: _331  and  _332
REMARK  138  A    between atoms: _331  and  _334
REMARK  139  A    between atoms: _334  and  _335
REMARK  140  A    between atoms: _335  and  _336
REMARK  141  A    between atoms: _339  and  _341
REMARK  142  A    between atoms: _341  and  _342
REMARK  143  A    between atoms: _344  and  _346
REMARK  144  A    between atoms: _346  and  _347
REMARK  145  A    between atoms: _346  and  _349
REMARK  146  A    between atoms: _349  and  _350
REMARK  147  A    between atoms: _351  and  _353
REMARK  148  A    between atoms: _353  and  _354
REMARK  149  A    between atoms: _357  and  _359
REMARK  150  A    between atoms: _359  and  _360
REMARK  151  A    between atoms: _359  and  _362
REMARK  152  A    between atoms: _362  and  _363
REMARK  153  A    between atoms: _363  and  _364
REMARK  154  A    between atoms: _369  and  _371
REMARK  155  A    between atoms: _371  and  _372
REMARK  156  A    between atoms: _371  and  _374
REMARK  157  A    between atoms: _374  and  _375
REMARK  158  A    between atoms: _375  and  _376
REMARK  159  A    between atoms: _376  and  _377
REMARK  160  A    between atoms: _387  and  _388
REMARK  161  A    between atoms: _393  and  _395
REMARK  162  A    between atoms: _395  and  _396
REMARK  163  A    between atoms: _398  and  _400
REMARK  164  A    between atoms: _400  and  _401
REMARK  165  A    between atoms: _400  and  _403
REMARK  166  A    between atoms: _403  and  _404
REMARK  167  A    between atoms: _407  and  _409
REMARK  168  A    between atoms: _409  and  _410
REMARK  169  A    between atoms: _409  and  _412
REMARK  170  A    between atoms: _412  and  _413
REMARK  171  A    between atoms: _418  and  _419
REMARK  172  A    between atoms: _423  and  _424
REMARK  173  A    between atoms: _427  and  _428
REMARK  174  A    between atoms: _433  and  _435
REMARK  175  A    between atoms: _435  and  _436
REMARK  176  A    between atoms: _435  and  _438
REMARK  177  A    between atoms: _438  and  _439
REMARK  178  A    between atoms: _442  and  _444
REMARK  179  A    between atoms: _444  and  _445
REMARK  180  A    between atoms: _444  and  _447
REMARK  181  A    between atoms: _447  and  _448
REMARK  182  A    between atoms: _448  and  _449
REMARK  183  A    between atoms: _449  and  _450
REMARK  184  A    between atoms: _450  and  _451
REMARK  185  A    between atoms: _455  and  _457
REMARK  186  A    between atoms: _457  and  _458
REMARK  187  A    between atoms: _457  and  _460
REMARK  188  A    between atoms: _460  and  _461
REMARK  189  A    between atoms: _467  and  _469
REMARK  190  A    between atoms: _469  and  _470
REMARK  191  A    between atoms: _469  and  _472
REMARK  192  A    between atoms: _472  and  _473
REMARK  193  A    between atoms: _478  and  _479
REMARK  194  A    between atoms: _481  and  _483
REMARK  195  A    between atoms: _483  and  _484
REMARK  196  A    between atoms: _483  and  _486
REMARK  197  A    between atoms: _486  and  _487
REMARK  198  A    between atoms: _490  and  _492
REMARK  199  A    between atoms: _492  and  _493
REMARK  200  A    between atoms: _496  and  _498
REMARK  201  A    between atoms: _498  and  _499
REMARK  202  A    between atoms: _498  and  _501
REMARK  203  A    between atoms: _501  and  _502
REMARK  204  A    between atoms: _502  and  _503
REMARK  205  A    between atoms: _508  and  _510
REMARK  206  A    between atoms: _510  and  _511
REMARK  207  A    between atoms: _510  and  _513
REMARK  208  A    between atoms: _513  and  _514
REMARK                            x       y       z     vdW  Elec       q    Type
REMARK                         _______ _______ _______ _____ _____    ______ ____
ROOT
ATOM      1  O   HOH     1      50.280  -8.432  -0.397  0.00  0.00    +0.000 OA
ENDROOT
TORSDOF 0
REMARK  Name = ../refined-set-2016/3v7t/3v7t_pocket.pdb
REMARK  208 active torsions:
REMARK  status: ('A' for Active; 'I' for Inactive)
REMARK    1  A    between atoms: _1  and  _5
REMARK    2  A    between atoms: _5  and  _6
REMARK    3  A    between atoms: _5  and  _8
REMARK    4  A    between atoms: _8  and  _9
REMARK    5  A    between atoms: _12  and  _14
REMARK    6  A    between atoms: _14  and  _15
REMARK    7  A    between atoms: _14  and  _17
REMARK    8  A    between atoms: _20  and  _22
REMARK    9  A    between atoms: _22  and  _23
REMARK   10  A    between atoms: _22  and  _25
REMARK   11  A    between atoms: _25  and  _26
REMARK   12  A    between atoms: _32  and  _34
REMARK   13  A    between atoms: _34  and  _35
REMARK   14  A    between atoms: _34  and  _37
REMARK   15  A    between atoms: _37  and  _38
REMARK   16  A    between atoms: _38  and  _56
REMARK   17  A    between atoms: _39  and  _41
REMARK   18  A    between atoms: _41  and  _42
REMARK   19  A    between atoms: _41  and  _44
REMARK   20  A    between atoms: _44  and  _45
REMARK   21  A    between atoms: _50  and  _52
REMARK   22  A    between atoms: _52  and  _53
REMARK   23  A    between atoms: _52  and  _55
REMARK   24  A    between atoms: _55  and  _56
REMARK   25  A    between atoms: _57  and  _59
REMARK   26  A    between atoms: _59  and  _60
REMARK   27  A    between atoms: _59  and  _62
REMARK   28  A    between atoms: _62  and  _63
REMARK   29  A    between atoms: _66  and  _68
REMARK   30  A    between atoms: _68  and  _69
REMARK   31  A    between atoms: _72  and  _74
REMARK   32  A    between atoms: _74  and  _75
REMARK   33  A    between atoms: _74  and  _77
REMARK   34  A    between atoms: _77  and  _78
REMARK   35  A    between atoms: _78  and  _79
REMARK   36  A    between atoms: _84  and  _86
REMARK   37  A    between atoms: _86  and  _87
REMARK   38  A    between atoms: _86  and  _89
REMARK   39  A    between atoms: _89  and  _90
REMARK   40  A    between atoms: _93  and  _95
REMARK   41  A    between atoms: _95  and  _96
REMARK   42  A    between atoms: _95  and  _98
REMARK   43  A    between atoms: _98  and  _99
REMARK   44  A    between atoms: _102  and  _104
REMARK   45  A    between atoms: _104  and  _105
REMARK   46  A    between atoms: _104  and  _107
REMARK   47  A    between atoms: _110  and  _112
REMARK   48  A    between atoms: _112  and  _113
REMARK   49  A    between atoms: _112  and  _115
REMARK   50  A    between atoms: _115  and  _116
REMARK   51  A    between atoms: _119  and  _121
REMARK   52  A    between atoms: _121  and  _122
REMARK   53  A    between atoms: _121  and  _124
REMARK   54  A    between atoms: _124  and  _125
REMARK   55  A    between atoms: _130  and  _132
REMARK   56  A    between atoms: _132  and  _133
REMARK   57  A    between atoms: _132  and  _135
REMARK   58  A    between atoms: _135  and  _136
REMARK   59  A    between atoms: _139  and  _141
REMARK   60  A    between atoms: _141  and  _142
REMARK   61  A    between atoms: _141  and  _144
REMARK   62  A    between atoms: _144  and  _145
REMARK   63  A    between atoms: _150  and  _151
REMARK   64  A    between atoms: _153  and  _155
REMARK   65  A    between atoms: _155  and  _156
REMARK   66  A    between atoms: _159  and  _161
REMARK   67  A    between atoms: _161  and  _162
REMARK   68  A    between atoms: _161  and  _164
REMARK   69  A    between atoms: _164  and  _165
REMARK   70  A    between atoms: _168  and  _170
REMARK   71  A    between atoms: _170  and  _171
REMARK   72  A    between atoms: _170  and  _173
REMARK   73  A    between atoms: _173  and  _174
REMARK   74  A    between atoms: _177  and  _179
REMARK   75  A    between atoms: _179  and  _180
REMARK   76  A    between atoms: _183  and  _185
REMARK   77  A    between atoms: _185  and  _186
REMARK   78  A    between atoms: _188  and  _190
REMARK   79  A    between atoms: _190  and  _191
REMARK   80  A    between atoms: _190  and  _193
REMARK   81  A    between atoms: _193  and  _194
REMARK   82  A    between atoms: _199  and  _201
REMARK   83  A    between atoms: _201  and  _202
REMARK   84  A    between atoms: _201  and  _204
REMARK   85  A    between atoms: _204  and  _205
REMARK   86  A    between atoms: _205  and  _206
REMARK   87  A    between atoms: _206  and  _207
REMARK   88  A    between atoms: _216  and  _218
REMARK   89  A    between atoms: _218  and  _219
REMARK   90  A    between atoms: _218  and  _221
REMARK   91  A    between atoms: _221  and  _222
REMARK   92  A    between atoms: _225  and  _227
REMARK   93  A    between atoms: _227  and  _228
REMARK   94  A    between atoms: _227  and  _230
REMARK   95  A    between atoms: _230  and  _231
REMARK   96  A    between atoms: _233  and  _235
REMARK   97  A    between atoms: _235  and  _236
REMARK   98  A    between atoms: _235  and  _238
REMARK   99  A    between atoms: _238  and  _239
REMARK  100  A    between atoms: _239  and  _350
REMARK  101  A    between atoms: _240  and  _242
REMARK  102  A    between atoms: _242  and  _243
REMARK  103  A    between atoms: _242  and  _245
REMARK  104  A    between atoms: _245  and  _246
REMARK  105  A    between atoms: _246  and  _247
REMARK  106  A    between atoms: _252  and  _254
REMARK  107  A    between atoms: _254  and  _255
REMARK  108  A    between atoms: _257  and  _259
REMARK  109  A    between atoms: _259  and  _260
REMARK  110  A    between atoms: _259  and  _262
REMARK  111  A    between atoms: _262  and  _263
REMARK  112  A    between atoms: _266  and  _268
REMARK  113  A    between atoms: _268  and  _269
REMARK  114  A    between atoms: _268  and  _271
REMARK  115  A    between atoms: _271  and  _272
REMARK  116  A    between atoms: _274  and  _276
REMARK  117  A    between atoms: _276  and  _277
REMARK  118  A    between atoms: _279  and  _281
REMARK  119  A    between atoms: _281  and  _282
REMARK  120  A    between atoms: _284  and  _286
REMARK  121  A    between atoms: _286  and  _287
REMARK  122  A    between atoms: _286  and  _289
REMARK  123  A    between atoms: _292  and  _294
REMARK  124  A    between atoms: _294  and  _295
REMARK  125  A    between atoms: _294  and  _297
REMARK  126  A    between atoms: _300  and  _302
REMARK  127  A    between atoms: _302  and  _303
REMARK  128  A    between atoms: _302  and  _305
REMARK  129  A    between atoms: _305  and  _306
REMARK  130  A    between atoms: _308  and  _310
REMARK  131  A    between atoms: _310  and  _311
REMARK  132  A    between atoms: _310  and  _313
REMARK  133  A    between atoms: _313  and  _314
REMARK  134  A    between atoms: _324  and  _326
REMARK  135  A    between atoms: _326  and  _327
REMARK  136  A    between atoms: _329  and  _331
REMARK  137  A    between atoms: _331  and  _332
REMARK  138  A    between atoms: _331  and  _334
REMARK  139  A    between atoms: _334  and  _335
REMARK  140  A    between atoms: _335  and  _336
REMARK  141  A    between atoms: _339  and  _341
REMARK  142  A    between atoms: _341  and  _342
REMARK  143  A    between atoms: _344  and  _346
REMARK  144  A    between atoms: _346  and  _347
REMARK  145  A    between atoms: _346  and  _349
REMARK  146  A    between atoms: _349  and  _350
REMARK  147  A    between atoms: _351  and  _353
REMARK  148  A    between atoms: _353  and  _354
REMARK  149  A    between atoms: _357  and  _359
REMARK  150  A    between atoms: _359  and  _360
REMARK  151  A    between atoms: _359  and  _362
REMARK  152  A    between atoms: _362  and  _363
REMARK  153  A    between atoms: _363  and  _364
REMARK  154  A    between atoms: _369  and  _371
REMARK  155  A    between atoms: _371  and  _372
REMARK  156  A    between atoms: _371  and  _374
REMARK  157  A    between atoms: _374  and  _375
REMARK  158  A    between atoms: _375  and  _376
REMARK  159  A    between atoms: _376  and  _377
REMARK  160  A    between atoms: _387  and  _388
REMARK  161  A    between atoms: _393  and  _395
REMARK  162  A    between atoms: _395  and  _396
REMARK  163  A    between atoms: _398  and  _400
REMARK  164  A    between atoms: _400  and  _401
REMARK  165  A    between atoms: _400  and  _403
REMARK  166  A    between atoms: _403  and  _404
REMARK  167  A    between atoms: _407  and  _409
REMARK  168  A    between atoms: _409  and  _410
REMARK  169  A    between atoms: _409  and  _412
REMARK  170  A    between atoms: _412  and  _413
REMARK  171  A    between atoms: _418  and  _419
REMARK  172  A    between atoms: _423  and  _424
REMARK  173  A    between atoms: _427  and  _428
REMARK  174  A    between atoms: _433  and  _435
REMARK  175  A    between atoms: _435  and  _436
REMARK  176  A    between atoms: _435  and  _438
REMARK  177  A    between atoms: _438  and  _439
REMARK  178  A    between atoms: _442  and  _444
REMARK  179  A    between atoms: _444  and  _445
REMARK  180  A    between atoms: _444  and  _447
REMARK  181  A    between atoms: _447  and  _448
REMARK  182  A    between atoms: _448  and  _449
REMARK  183  A    between atoms: _449  and  _450
REMARK  184  A    between atoms: _450  and  _451
REMARK  185  A    between atoms: _455  and  _457
REMARK  186  A    between atoms: _457  and  _458
REMARK  187  A    between atoms: _457  and  _460
REMARK  188  A    between atoms: _460  and  _461
REMARK  189  A    between atoms: _467  and  _469
REMARK  190  A    between atoms: _469  and  _470
REMARK  191  A    between atoms: _469  and  _472
REMARK  192  A    between atoms: _472  and  _473
REMARK  193  A    between atoms: _478  and  _479
REMARK  194  A    between atoms: _481  and  _483
REMARK  195  A    between atoms: _483  and  _484
REMARK  196  A    between atoms: _483  and  _486
REMARK  197  A    between atoms: _486  and  _487
REMARK  198  A    between atoms: _490  and  _492
REMARK  199  A    between atoms: _492  and  _493
REMARK  200  A    between atoms: _496  and  _498
REMARK  201  A    between atoms: _498  and  _499
REMARK  202  A    between atoms: _498  and  _501
REMARK  203  A    between atoms: _501  and  _502
REMARK  204  A    between atoms: _502  and  _503
REMARK  205  A    between atoms: _508  and  _510
REMARK  206  A    between atoms: _510  and  _511
REMARK  207  A    between atoms: _510  and  _513
REMARK  208  A    between atoms: _513  and  _514
REMARK                            x       y       z     vdW  Elec       q    Type
REMARK                         _______ _______ _______ _____ _____    ______ ____
ROOT
ATOM      1  O   HOH     1      45.467  -8.331  -0.570  0.00  0.00    +0.000 OA
ENDROOT
TORSDOF 0
REMARK  Name = ../refined-set-2016/3v7t/3v7t_pocket.pdb
REMARK  208 active torsions:
REMARK  status: ('A' for Active; 'I' for Inactive)
REMARK    1  A    between atoms: _1  and  _5
REMARK    2  A    between atoms: _5  and  _6
REMARK    3  A    between atoms: _5  and  _8
REMARK    4  A    between atoms: _8  and  _9
REMARK    5  A    between atoms: _12  and  _14
REMARK    6  A    between atoms: _14  and  _15
REMARK    7  A    between atoms: _14  and  _17
REMARK    8  A    between atoms: _20  and  _22
REMARK    9  A    between atoms: _22  and  _23
REMARK   10  A    between atoms: _22  and  _25
REMARK   11  A    between atoms: _25  and  _26
REMARK   12  A    between atoms: _32  and  _34
REMARK   13  A    between atoms: _34  and  _35
REMARK   14  A    between atoms: _34  and  _37
REMARK   15  A    between atoms: _37  and  _38
REMARK   16  A    between atoms: _38  and  _56
REMARK   17  A    between atoms: _39  and  _41
REMARK   18  A    between atoms: _41  and  _42
REMARK   19  A    between atoms: _41  and  _44
REMARK   20  A    between atoms: _44  and  _45
REMARK   21  A    between atoms: _50  and  _52
REMARK   22  A    between atoms: _52  and  _53
REMARK   23  A    between atoms: _52  and  _55
REMARK   24  A    between atoms: _55  and  _56
REMARK   25  A    between atoms: _57  and  _59
REMARK   26  A    between atoms: _59  and  _60
REMARK   27  A    between atoms: _59  and  _62
REMARK   28  A    between atoms: _62  and  _63
REMARK   29  A    between atoms: _66  and  _68
REMARK   30  A    between atoms: _68  and  _69
REMARK   31  A    between atoms: _72  and  _74
REMARK   32  A    between atoms: _74  and  _75
REMARK   33  A    between atoms: _74  and  _77
REMARK   34  A    between atoms: _77  and  _78
REMARK   35  A    between atoms: _78  and  _79
REMARK   36  A    between atoms: _84  and  _86
REMARK   37  A    between atoms: _86  and  _87
REMARK   38  A    between atoms: _86  and  _89
REMARK   39  A    between atoms: _89  and  _90
REMARK   40  A    between atoms: _93  and  _95
REMARK   41  A    between atoms: _95  and  _96
REMARK   42  A    between atoms: _95  and  _98
REMARK   43  A    between atoms: _98  and  _99
REMARK   44  A    between atoms: _102  and  _104
REMARK   45  A    between atoms: _104  and  _105
REMARK   46  A    between atoms: _104  and  _107
REMARK   47  A    between atoms: _110  and  _112
REMARK   48  A    between atoms: _112  and  _113
REMARK   49  A    between atoms: _112  and  _115
REMARK   50  A    between atoms: _115  and  _116
REMARK   51  A    between atoms: _119  and  _121
REMARK   52  A    between atoms: _121  and  _122
REMARK   53  A    between atoms: _121  and  _124
REMARK   54  A    between atoms: _124  and  _125
REMARK   55  A    between atoms: _130  and  _132
REMARK   56  A    between atoms: _132  and  _133
REMARK   57  A    between atoms: _132  and  _135
REMARK   58  A    between atoms: _135  and  _136
REMARK   59  A    between atoms: _139  and  _141
REMARK   60  A    between atoms: _141  and  _142
REMARK   61  A    between atoms: _141  and  _144
REMARK   62  A    between atoms: _144  and  _145
REMARK   63  A    between atoms: _150  and  _151
REMARK   64  A    between atoms: _153  and  _155
REMARK   65  A    between atoms: _155  and  _156
REMARK   66  A    between atoms: _159  and  _161
REMARK   67  A    between atoms: _161  and  _162
REMARK   68  A    between atoms: _161  and  _164
REMARK   69  A    between atoms: _164  and  _165
REMARK   70  A    between atoms: _168  and  _170
REMARK   71  A    between atoms: _170  and  _171
REMARK   72  A    between atoms: _170  and  _173
REMARK   73  A    between atoms: _173  and  _174
REMARK   74  A    between atoms: _177  and  _179
REMARK   75  A    between atoms: _179  and  _180
REMARK   76  A    between atoms: _183  and  _185
REMARK   77  A    between atoms: _185  and  _186
REMARK   78  A    between atoms: _188  and  _190
REMARK   79  A    between atoms: _190  and  _191
REMARK   80  A    between atoms: _190  and  _193
REMARK   81  A    between atoms: _193  and  _194
REMARK   82  A    between atoms: _199  and  _201
REMARK   83  A    between atoms: _201  and  _202
REMARK   84  A    between atoms: _201  and  _204
REMARK   85  A    between atoms: _204  and  _205
REMARK   86  A    between atoms: _205  and  _206
REMARK   87  A    between atoms: _206  and  _207
REMARK   88  A    between atoms: _216  and  _218
REMARK   89  A    between atoms: _218  and  _219
REMARK   90  A    between atoms: _218  and  _221
REMARK   91  A    between atoms: _221  and  _222
REMARK   92  A    between atoms: _225  and  _227
REMARK   93  A    between atoms: _227  and  _228
REMARK   94  A    between atoms: _227  and  _230
REMARK   95  A    between atoms: _230  and  _231
REMARK   96  A    between atoms: _233  and  _235
REMARK   97  A    between atoms: _235  and  _236
REMARK   98  A    between atoms: _235  and  _238
REMARK   99  A    between atoms: _238  and  _239
REMARK  100  A    between atoms: _239  and  _350
REMARK  101  A    between atoms: _240  and  _242
REMARK  102  A    between atoms: _242  and  _243
REMARK  103  A    between atoms: _242  and  _245
REMARK  104  A    between atoms: _245  and  _246
REMARK  105  A    between atoms: _246  and  _247
REMARK  106  A    between atoms: _252  and  _254
REMARK  107  A    between atoms: _254  and  _255
REMARK  108  A    between atoms: _257  and  _259
REMARK  109  A    between atoms: _259  and  _260
REMARK  110  A    between atoms: _259  and  _262
REMARK  111  A    between atoms: _262  and  _263
REMARK  112  A    between atoms: _266  and  _268
REMARK  113  A    between atoms: _268  and  _269
REMARK  114  A    between atoms: _268  and  _271
REMARK  115  A    between atoms: _271  and  _272
REMARK  116  A    between atoms: _274  and  _276
REMARK  117  A    between atoms: _276  and  _277
REMARK  118  A    between atoms: _279  and  _281
REMARK  119  A    between atoms: _281  and  _282
REMARK  120  A    between atoms: _284  and  _286
REMARK  121  A    between atoms: _286  and  _287
REMARK  122  A    between atoms: _286  and  _289
REMARK  123  A    between atoms: _292  and  _294
REMARK  124  A    between atoms: _294  and  _295
REMARK  125  A    between atoms: _294  and  _297
REMARK  126  A    between atoms: _300  and  _302
REMARK  127  A    between atoms: _302  and  _303
REMARK  128  A    between atoms: _302  and  _305
REMARK  129  A    between atoms: _305  and  _306
REMARK  130  A    between atoms: _308  and  _310
REMARK  131  A    between atoms: _310  and  _311
REMARK  132  A    between atoms: _310  and  _313
REMARK  133  A    between atoms: _313  and  _314
REMARK  134  A    between atoms: _324  and  _326
REMARK  135  A    between atoms: _326  and  _327
REMARK  136  A    between atoms: _329  and  _331
REMARK  137  A    between atoms: _331  and  _332
REMARK  138  A    between atoms: _331  and  _334
REMARK  139  A    between atoms: _334  and  _335
REMARK  140  A    between atoms: _335  and  _336
REMARK  141  A    between atoms: _339  and  _341
REMARK  142  A    between atoms: _341  and  _342
REMARK  143  A    between atoms: _344  and  _346
REMARK  144  A    between atoms: _346  and  _347
REMARK  145  A    between atoms: _346  and  _349
REMARK  146  A    between atoms: _349  and  _350
REMARK  147  A    between atoms: _351  and  _353
REMARK  148  A    between atoms: _353  and  _354
REMARK  149  A    between atoms: _357  and  _359
REMARK  150  A    between atoms: _359  and  _360
REMARK  151  A    between atoms: _359  and  _362
REMARK  152  A    between atoms: _362  and  _363
REMARK  153  A    between atoms: _363  and  _364
REMARK  154  A    between atoms: _369  and  _371
REMARK  155  A    between atoms: _371  and  _372
REMARK  156  A    between atoms: _371  and  _374
REMARK  157  A    between atoms: _374  and  _375
REMARK  158  A    between atoms: _375  and  _376
REMARK  159  A    between atoms: _376  and  _377
REMARK  160  A    between atoms: _387  and  _388
REMARK  161  A    between atoms: _393  and  _395
REMARK  162  A    between atoms: _395  and  _396
REMARK  163  A    between atoms: _398  and  _400
REMARK  164  A    between atoms: _400  and  _401
REMARK  165  A    between atoms: _400  and  _403
REMARK  166  A    between atoms: _403  and  _404
REMARK  167  A    between atoms: _407  and  _409
REMARK  168  A    between atoms: _409  and  _410
REMARK  169  A    between atoms: _409  and  _412
REMARK  170  A    between atoms: _412  and  _413
REMARK  171  A    between atoms: _418  and  _419
REMARK  172  A    between atoms: _423  and  _424
REMARK  173  A    between atoms: _427  and  _428
REMARK  174  A    between atoms: _433  and  _435
REMARK  175  A    between atoms: _435  and  _436
REMARK  176  A    between atoms: _435  and  _438
REMARK  177  A    between atoms: _438  and  _439
REMARK  178  A    between atoms: _442  and  _444
REMARK  179  A    between atoms: _444  and  _445
REMARK  180  A    between atoms: _444  and  _447
REMARK  181  A    between atoms: _447  and  _448
REMARK  182  A    between atoms: _448  and  _449
REMARK  183  A    between atoms: _449  and  _450
REMARK  184  A    between atoms: _450  and  _451
REMARK  185  A    between atoms: _455  and  _457
REMARK  186  A    between atoms: _457  and  _458
REMARK  187  A    between atoms: _457  and  _460
REMARK  188  A    between atoms: _460  and  _461
REMARK  189  A    between atoms: _467  and  _469
REMARK  190  A    between atoms: _469  and  _470
REMARK  191  A    between atoms: _469  and  _472
REMARK  192  A    between atoms: _472  and  _473
REMARK  193  A    between atoms: _478  and  _479
REMARK  194  A    between atoms: _481  and  _483
REMARK  195  A    between atoms: _483  and  _484
REMARK  196  A    between atoms: _483  and  _486
REMARK  197  A    between atoms: _486  and  _487
REMARK  198  A    between atoms: _490  and  _492
REMARK  199  A    between atoms: _492  and  _493
REMARK  200  A    between atoms: _496  and  _498
REMARK  201  A    between atoms: _498  and  _499
REMARK  202  A    between atoms: _498  and  _501
REMARK  203  A    between atoms: _501  and  _502
REMARK  204  A    between atoms: _502  and  _503
REMARK  205  A    between atoms: _508  and  _510
REMARK  206  A    between atoms: _510  and  _511
REMARK  207  A    between atoms: _510  and  _513
REMARK  208  A    between atoms: _513  and  _514
REMARK                            x       y       z     vdW  Elec       q    Type
REMARK                         _______ _______ _______ _____ _____    ______ ____
ROOT
ATOM      1  O   HOH     1      47.888  -3.903  -3.697  0.00  0.00    +0.000 OA
ENDROOT
TORSDOF 0
REMARK  Name = ../refined-set-2016/3v7t/3v7t_pocket.pdb
REMARK  208 active torsions:
REMARK  status: ('A' for Active; 'I' for Inactive)
REMARK    1  A    between atoms: _1  and  _5
REMARK    2  A    between atoms: _5  and  _6
REMARK    3  A    between atoms: _5  and  _8
REMARK    4  A    between atoms: _8  and  _9
REMARK    5  A    between atoms: _12  and  _14
REMARK    6  A    between atoms: _14  and  _15
REMARK    7  A    between atoms: _14  and  _17
REMARK    8  A    between atoms: _20  and  _22
REMARK    9  A    between atoms: _22  and  _23
REMARK   10  A    between atoms: _22  and  _25
REMARK   11  A    between atoms: _25  and  _26
REMARK   12  A    between atoms: _32  and  _34
REMARK   13  A    between atoms: _34  and  _35
REMARK   14  A    between atoms: _34  and  _37
REMARK   15  A    between atoms: _37  and  _38
REMARK   16  A    between atoms: _38  and  _56
REMARK   17  A    between atoms: _39  and  _41
REMARK   18  A    between atoms: _41  and  _42
REMARK   19  A    between atoms: _41  and  _44
REMARK   20  A    between atoms: _44  and  _45
REMARK   21  A    between atoms: _50  and  _52
REMARK   22  A    between atoms: _52  and  _53
REMARK   23  A    between atoms: _52  and  _55
REMARK   24  A    between atoms: _55  and  _56
REMARK   25  A    between atoms: _57  and  _59
REMARK   26  A    between atoms: _59  and  _60
REMARK   27  A    between atoms: _59  and  _62
REMARK   28  A    between atoms: _62  and  _63
REMARK   29  A    between atoms: _66  and  _68
REMARK   30  A    between atoms: _68  and  _69
REMARK   31  A    between atoms: _72  and  _74
REMARK   32  A    between atoms: _74  and  _75
REMARK   33  A    between atoms: _74  and  _77
REMARK   34  A    between atoms: _77  and  _78
REMARK   35  A    between atoms: _78  and  _79
REMARK   36  A    between atoms: _84  and  _86
REMARK   37  A    between atoms: _86  and  _87
REMARK   38  A    between atoms: _86  and  _89
REMARK   39  A    between atoms: _89  and  _90
REMARK   40  A    between atoms: _93  and  _95
REMARK   41  A    between atoms: _95  and  _96
REMARK   42  A    between atoms: _95  and  _98
REMARK   43  A    between atoms: _98  and  _99
REMARK   44  A    between atoms: _102  and  _104
REMARK   45  A    between atoms: _104  and  _105
REMARK   46  A    between atoms: _104  and  _107
REMARK   47  A    between atoms: _110  and  _112
REMARK   48  A    between atoms: _112  and  _113
REMARK   49  A    between atoms: _112  and  _115
REMARK   50  A    between atoms: _115  and  _116
REMARK   51  A    between atoms: _119  and  _121
REMARK   52  A    between atoms: _121  and  _122
REMARK   53  A    between atoms: _121  and  _124
REMARK   54  A    between atoms: _124  and  _125
REMARK   55  A    between atoms: _130  and  _132
REMARK   56  A    between atoms: _132  and  _133
REMARK   57  A    between atoms: _132  and  _135
REMARK   58  A    between atoms: _135  and  _136
REMARK   59  A    between atoms: _139  and  _141
REMARK   60  A    between atoms: _141  and  _142
REMARK   61  A    between atoms: _141  and  _144
REMARK   62  A    between atoms: _144  and  _145
REMARK   63  A    between atoms: _150  and  _151
REMARK   64  A    between atoms: _153  and  _155
REMARK   65  A    between atoms: _155  and  _156
REMARK   66  A    between atoms: _159  and  _161
REMARK   67  A    between atoms: _161  and  _162
REMARK   68  A    between atoms: _161  and  _164
REMARK   69  A    between atoms: _164  and  _165
REMARK   70  A    between atoms: _168  and  _170
REMARK   71  A    between atoms: _170  and  _171
REMARK   72  A    between atoms: _170  and  _173
REMARK   73  A    between atoms: _173  and  _174
REMARK   74  A    between atoms: _177  and  _179
REMARK   75  A    between atoms: _179  and  _180
REMARK   76  A    between atoms: _183  and  _185
REMARK   77  A    between atoms: _185  and  _186
REMARK   78  A    between atoms: _188  and  _190
REMARK   79  A    between atoms: _190  and  _191
REMARK   80  A    between atoms: _190  and  _193
REMARK   81  A    between atoms: _193  and  _194
REMARK   82  A    between atoms: _199  and  _201
REMARK   83  A    between atoms: _201  and  _202
REMARK   84  A    between atoms: _201  and  _204
REMARK   85  A    between atoms: _204  and  _205
REMARK   86  A    between atoms: _205  and  _206
REMARK   87  A    between atoms: _206  and  _207
REMARK   88  A    between atoms: _216  and  _218
REMARK   89  A    between atoms: _218  and  _219
REMARK   90  A    between atoms: _218  and  _221
REMARK   91  A    between atoms: _221  and  _222
REMARK   92  A    between atoms: _225  and  _227
REMARK   93  A    between atoms: _227  and  _228
REMARK   94  A    between atoms: _227  and  _230
REMARK   95  A    between atoms: _230  and  _231
REMARK   96  A    between atoms: _233  and  _235
REMARK   97  A    between atoms: _235  and  _236
REMARK   98  A    between atoms: _235  and  _238
REMARK   99  A    between atoms: _238  and  _239
REMARK  100  A    between atoms: _239  and  _350
REMARK  101  A    between atoms: _240  and  _242
REMARK  102  A    between atoms: _242  and  _243
REMARK  103  A    between atoms: _242  and  _245
REMARK  104  A    between atoms: _245  and  _246
REMARK  105  A    between atoms: _246  and  _247
REMARK  106  A    between atoms: _252  and  _254
REMARK  107  A    between atoms: _254  and  _255
REMARK  108  A    between atoms: _257  and  _259
REMARK  109  A    between atoms: _259  and  _260
REMARK  110  A    between atoms: _259  and  _262
REMARK  111  A    between atoms: _262  and  _263
REMARK  112  A    between atoms: _266  and  _268
REMARK  113  A    between atoms: _268  and  _269
REMARK  114  A    between atoms: _268  and  _271
REMARK  115  A    between atoms: _271  and  _272
REMARK  116  A    between atoms: _274  and  _276
REMARK  117  A    between atoms: _276  and  _277
REMARK  118  A    between atoms: _279  and  _281
REMARK  119  A    between atoms: _281  and  _282
REMARK  120  A    between atoms: _284  and  _286
REMARK  121  A    between atoms: _286  and  _287
REMARK  122  A    between atoms: _286  and  _289
REMARK  123  A    between atoms: _292  and  _294
REMARK  124  A    between atoms: _294  and  _295
REMARK  125  A    between atoms: _294  and  _297
REMARK  126  A    between atoms: _300  and  _302
REMARK  127  A    between atoms: _302  and  _303
REMARK  128  A    between atoms: _302  and  _305
REMARK  129  A    between atoms: _305  and  _306
REMARK  130  A    between atoms: _308  and  _310
REMARK  131  A    between atoms: _310  and  _311
REMARK  132  A    between atoms: _310  and  _313
REMARK  133  A    between atoms: _313  and  _314
REMARK  134  A    between atoms: _324  and  _326
REMARK  135  A    between atoms: _326  and  _327
REMARK  136  A    between atoms: _329  and  _331
REMARK  137  A    between atoms: _331  and  _332
REMARK  138  A    between atoms: _331  and  _334
REMARK  139  A    between atoms: _334  and  _335
REMARK  140  A    between atoms: _335  and  _336
REMARK  141  A    between atoms: _339  and  _341
REMARK  142  A    between atoms: _341  and  _342
REMARK  143  A    between atoms: _344  and  _346
REMARK  144  A    between atoms: _346  and  _347
REMARK  145  A    between atoms: _346  and  _349
REMARK  146  A    between atoms: _349  and  _350
REMARK  147  A    between atoms: _351  and  _353
REMARK  148  A    between atoms: _353  and  _354
REMARK  149  A    between atoms: _357  and  _359
REMARK  150  A    between atoms: _359  and  _360
REMARK  151  A    between atoms: _359  and  _362
REMARK  152  A    between atoms: _362  and  _363
REMARK  153  A    between atoms: _363  and  _364
REMARK  154  A    between atoms: _369  and  _371
REMARK  155  A    between atoms: _371  and  _372
REMARK  156  A    between atoms: _371  and  _374
REMARK  157  A    between atoms: _374  and  _375
REMARK  158  A    between atoms: _375  and  _376
REMARK  159  A    between atoms: _376  and  _377
REMARK  160  A    between atoms: _387  and  _388
REMARK  161  A    between atoms: _393  and  _395
REMARK  162  A    between atoms: _395  and  _396
REMARK  163  A    between atoms: _398  and  _400
REMARK  164  A    between atoms: _400  and  _401
REMARK  165  A    between atoms: _400  and  _403
REMARK  166  A    between atoms: _403  and  _404
REMARK  167  A    between atoms: _407  and  _409
REMARK  168  A    between atoms: _409  and  _410
REMARK  169  A    between atoms: _409  and  _412
REMARK  170  A    between atoms: _412  and  _413
REMARK  171  A    between atoms: _418  and  _419
REMARK  172  A    between atoms: _423  and  _424
REMARK  173  A    between atoms: _427  and  _428
REMARK  174  A    between atoms: _433  and  _435
REMARK  175  A    between atoms: _435  and  _436
REMARK  176  A    between atoms: _435  and  _438
REMARK  177  A    between atoms: _438  and  _439
REMARK  178  A    between atoms: _442  and  _444
REMARK  179  A    between atoms: _444  and  _445
REMARK  180  A    between atoms: _444  and  _447
REMARK  181  A    between atoms: _447  and  _448
REMARK  182  A    between atoms: _448  and  _449
REMARK  183  A    between atoms: _449  and  _450
REMARK  184  A    between atoms: _450  and  _451
REMARK  185  A    between atoms: _455  and  _457
REMARK  186  A    between atoms: _457  and  _458
REMARK  187  A    between atoms: _457  and  _460
REMARK  188  A    between atoms: _460  and  _461
REMARK  189  A    between atoms: _467  and  _469
REMARK  190  A    between atoms: _469  and  _470
REMARK  191  A    between atoms: _469  and  _472
REMARK  192  A    between atoms: _472  and  _473
REMARK  193  A    between atoms: _478  and  _479
REMARK  194  A    between atoms: _481  and  _483
REMARK  195  A    between atoms: _483  and  _484
REMARK  196  A    between atoms: _483  and  _486
REMARK  197  A    between atoms: _486  and  _487
REMARK  198  A    between atoms: _490  and  _492
REMARK  199  A    between atoms: _492  and  _493
REMARK  200  A    between atoms: _496  and  _498
REMARK  201  A    between atoms: _498  and  _499
REMARK  202  A    between atoms: _498  and  _501
REMARK  203  A    between atoms: _501  and  _502
REMARK  204  A    between atoms: _502  and  _503
REMARK  205  A    between atoms: _508  and  _510
REMARK  206  A    between atoms: _510  and  _511
REMARK  207  A    between atoms: _510  and  _513
REMARK  208  A    between atoms: _513  and  _514
REMARK                            x       y       z     vdW  Elec       q    Type
REMARK                         _______ _______ _______ _____ _____    ______ ____
ROOT
ATOM      1  O   HOH     1      47.817  -6.887   0.040  0.00  0.00    +0.000 OA
ENDROOT
TORSDOF 0
REMARK  Name = ../refined-set-2016/3v7t/3v7t_pocket.pdb
REMARK  208 active torsions:
REMARK  status: ('A' for Active; 'I' for Inactive)
REMARK    1  A    between atoms: _1  and  _5
REMARK    2  A    between atoms: _5  and  _6
REMARK    3  A    between atoms: _5  and  _8
REMARK    4  A    between atoms: _8  and  _9
REMARK    5  A    between atoms: _12  and  _14
REMARK    6  A    between atoms: _14  and  _15
REMARK    7  A    between atoms: _14  and  _17
REMARK    8  A    between atoms: _20  and  _22
REMARK    9  A    between atoms: _22  and  _23
REMARK   10  A    between atoms: _22  and  _25
REMARK   11  A    between atoms: _25  and  _26
REMARK   12  A    between atoms: _32  and  _34
REMARK   13  A    between atoms: _34  and  _35
REMARK   14  A    between atoms: _34  and  _37
REMARK   15  A    between atoms: _37  and  _38
REMARK   16  A    between atoms: _38  and  _56
REMARK   17  A    between atoms: _39  and  _41
REMARK   18  A    between atoms: _41  and  _42
REMARK   19  A    between atoms: _41  and  _44
REMARK   20  A    between atoms: _44  and  _45
REMARK   21  A    between atoms: _50  and  _52
REMARK   22  A    between atoms: _52  and  _53
REMARK   23  A    between atoms: _52  and  _55
REMARK   24  A    between atoms: _55  and  _56
REMARK   25  A    between atoms: _57  and  _59
REMARK   26  A    between atoms: _59  and  _60
REMARK   27  A    between atoms: _59  and  _62
REMARK   28  A    between atoms: _62  and  _63
REMARK   29  A    between atoms: _66  and  _68
REMARK   30  A    between atoms: _68  and  _69
REMARK   31  A    between atoms: _72  and  _74
REMARK   32  A    between atoms: _74  and  _75
REMARK   33  A    between atoms: _74  and  _77
REMARK   34  A    between atoms: _77  and  _78
REMARK   35  A    between atoms: _78  and  _79
REMARK   36  A    between atoms: _84  and  _86
REMARK   37  A    between atoms: _86  and  _87
REMARK   38  A    between atoms: _86  and  _89
REMARK   39  A    between atoms: _89  and  _90
REMARK   40  A    between atoms: _93  and  _95
REMARK   41  A    between atoms: _95  and  _96
REMARK   42  A    between atoms: _95  and  _98
REMARK   43  A    between atoms: _98  and  _99
REMARK   44  A    between atoms: _102  and  _104
REMARK   45  A    between atoms: _104  and  _105
REMARK   46  A    between atoms: _104  and  _107
REMARK   47  A    between atoms: _110  and  _112
REMARK   48  A    between atoms: _112  and  _113
REMARK   49  A    between atoms: _112  and  _115
REMARK   50  A    between atoms: _115  and  _116
REMARK   51  A    between atoms: _119  and  _121
REMARK   52  A    between atoms: _121  and  _122
REMARK   53  A    between atoms: _121  and  _124
REMARK   54  A    between atoms: _124  and  _125
REMARK   55  A    between atoms: _130  and  _132
REMARK   56  A    between atoms: _132  and  _133
REMARK   57  A    between atoms: _132  and  _135
REMARK   58  A    between atoms: _135  and  _136
REMARK   59  A    between atoms: _139  and  _141
REMARK   60  A    between atoms: _141  and  _142
REMARK   61  A    between atoms: _141  and  _144
REMARK   62  A    between atoms: _144  and  _145
REMARK   63  A    between atoms: _150  and  _151
REMARK   64  A    between atoms: _153  and  _155
REMARK   65  A    between atoms: _155  and  _156
REMARK   66  A    between atoms: _159  and  _161
REMARK   67  A    between atoms: _161  and  _162
REMARK   68  A    between atoms: _161  and  _164
REMARK   69  A    between atoms: _164  and  _165
REMARK   70  A    between atoms: _168  and  _170
REMARK   71  A    between atoms: _170  and  _171
REMARK   72  A    between atoms: _170  and  _173
REMARK   73  A    between atoms: _173  and  _174
REMARK   74  A    between atoms: _177  and  _179
REMARK   75  A    between atoms: _179  and  _180
REMARK   76  A    between atoms: _183  and  _185
REMARK   77  A    between atoms: _185  and  _186
REMARK   78  A    between atoms: _188  and  _190
REMARK   79  A    between atoms: _190  and  _191
REMARK   80  A    between atoms: _190  and  _193
REMARK   81  A    between atoms: _193  and  _194
REMARK   82  A    between atoms: _199  and  _201
REMARK   83  A    between atoms: _201  and  _202
REMARK   84  A    between atoms: _201  and  _204
REMARK   85  A    between atoms: _204  and  _205
REMARK   86  A    between atoms: _205  and  _206
REMARK   87  A    between atoms: _206  and  _207
REMARK   88  A    between atoms: _216  and  _218
REMARK   89  A    between atoms: _218  and  _219
REMARK   90  A    between atoms: _218  and  _221
REMARK   91  A    between atoms: _221  and  _222
REMARK   92  A    between atoms: _225  and  _227
REMARK   93  A    between atoms: _227  and  _228
REMARK   94  A    between atoms: _227  and  _230
REMARK   95  A    between atoms: _230  and  _231
REMARK   96  A    between atoms: _233  and  _235
REMARK   97  A    between atoms: _235  and  _236
REMARK   98  A    between atoms: _235  and  _238
REMARK   99  A    between atoms: _238  and  _239
REMARK  100  A    between atoms: _239  and  _350
REMARK  101  A    between atoms: _240  and  _242
REMARK  102  A    between atoms: _242  and  _243
REMARK  103  A    between atoms: _242  and  _245
REMARK  104  A    between atoms: _245  and  _246
REMARK  105  A    between atoms: _246  and  _247
REMARK  106  A    between atoms: _252  and  _254
REMARK  107  A    between atoms: _254  and  _255
REMARK  108  A    between atoms: _257  and  _259
REMARK  109  A    between atoms: _259  and  _260
REMARK  110  A    between atoms: _259  and  _262
REMARK  111  A    between atoms: _262  and  _263
REMARK  112  A    between atoms: _266  and  _268
REMARK  113  A    between atoms: _268  and  _269
REMARK  114  A    between atoms: _268  and  _271
REMARK  115  A    between atoms: _271  and  _272
REMARK  116  A    between atoms: _274  and  _276
REMARK  117  A    between atoms: _276  and  _277
REMARK  118  A    between atoms: _279  and  _281
REMARK  119  A    between atoms: _281  and  _282
REMARK  120  A    between atoms: _284  and  _286
REMARK  121  A    between atoms: _286  and  _287
REMARK  122  A    between atoms: _286  and  _289
REMARK  123  A    between atoms: _292  and  _294
REMARK  124  A    between atoms: _294  and  _295
REMARK  125  A    between atoms: _294  and  _297
REMARK  126  A    between atoms: _300  and  _302
REMARK  127  A    between atoms: _302  and  _303
REMARK  128  A    between atoms: _302  and  _305
REMARK  129  A    between atoms: _305  and  _306
REMARK  130  A    between atoms: _308  and  _310
REMARK  131  A    between atoms: _310  and  _311
REMARK  132  A    between atoms: _310  and  _313
REMARK  133  A    between atoms: _313  and  _314
REMARK  134  A    between atoms: _324  and  _326
REMARK  135  A    between atoms: _326  and  _327
REMARK  136  A    between atoms: _329  and  _331
REMARK  137  A    between atoms: _331  and  _332
REMARK  138  A    between atoms: _331  and  _334
REMARK  139  A    between atoms: _334  and  _335
REMARK  140  A    between atoms: _335  and  _336
REMARK  141  A    between atoms: _339  and  _341
REMARK  142  A    between atoms: _341  and  _342
REMARK  143  A    between atoms: _344  and  _346
REMARK  144  A    between atoms: _346  and  _347
REMARK  145  A    between atoms: _346  and  _349
REMARK  146  A    between atoms: _349  and  _350
REMARK  147  A    between atoms: _351  and  _353
REMARK  148  A    between atoms: _353  and  _354
REMARK  149  A    between atoms: _357  and  _359
REMARK  150  A    between atoms: _359  and  _360
REMARK  151  A    between atoms: _359  and  _362
REMARK  152  A    between atoms: _362  and  _363
REMARK  153  A    between atoms: _363  and  _364
REMARK  154  A    between atoms: _369  and  _371
REMARK  155  A    between atoms: _371  and  _372
REMARK  156  A    between atoms: _371  and  _374
REMARK  157  A    between atoms: _374  and  _375
REMARK  158  A    between atoms: _375  and  _376
REMARK  159  A    between atoms: _376  and  _377
REMARK  160  A    between atoms: _387  and  _388
REMARK  161  A    between atoms: _393  and  _395
REMARK  162  A    between atoms: _395  and  _396
REMARK  163  A    between atoms: _398  and  _400
REMARK  164  A    between atoms: _400  and  _401
REMARK  165  A    between atoms: _400  and  _403
REMARK  166  A    between atoms: _403  and  _404
REMARK  167  A    between atoms: _407  and  _409
REMARK  168  A    between atoms: _409  and  _410
REMARK  169  A    between atoms: _409  and  _412
REMARK  170  A    between atoms: _412  and  _413
REMARK  171  A    between atoms: _418  and  _419
REMARK  172  A    between atoms: _423  and  _424
REMARK  173  A    between atoms: _427  and  _428
REMARK  174  A    between atoms: _433  and  _435
REMARK  175  A    between atoms: _435  and  _436
REMARK  176  A    between atoms: _435  and  _438
REMARK  177  A    between atoms: _438  and  _439
REMARK  178  A    between atoms: _442  and  _444
REMARK  179  A    between atoms: _444  and  _445
REMARK  180  A    between atoms: _444  and  _447
REMARK  181  A    between atoms: _447  and  _448
REMARK  182  A    between atoms: _448  and  _449
REMARK  183  A    between atoms: _449  and  _450
REMARK  184  A    between atoms: _450  and  _451
REMARK  185  A    between atoms: _455  and  _457
REMARK  186  A    between atoms: _457  and  _458
REMARK  187  A    between atoms: _457  and  _460
REMARK  188  A    between atoms: _460  and  _461
REMARK  189  A    between atoms: _467  and  _469
REMARK  190  A    between atoms: _469  and  _470
REMARK  191  A    between atoms: _469  and  _472
REMARK  192  A    between atoms: _472  and  _473
REMARK  193  A    between atoms: _478  and  _479
REMARK  194  A    between atoms: _481  and  _483
REMARK  195  A    between atoms: _483  and  _484
REMARK  196  A    between atoms: _483  and  _486
REMARK  197  A    between atoms: _486  and  _487
REMARK  198  A    between atoms: _490  and  _492
REMARK  199  A    between atoms: _492  and  _493
REMARK  200  A    between atoms: _496  and  _498
REMARK  201  A    between atoms: _498  and  _499
REMARK  202  A    between atoms: _498  and  _501
REMARK  203  A    between atoms: _501  and  _502
REMARK  204  A    between atoms: _502  and  _503
REMARK  205  A    between atoms: _508  and  _510
REMARK  206  A    between atoms: _510  and  _511
REMARK  207  A    between atoms: _510  and  _513
REMARK  208  A    between atoms: _513  and  _514
REMARK                            x       y       z     vdW  Elec       q    Type
REMARK                         _______ _______ _______ _____ _____    ______ ____
ROOT
ATOM      1  O   HOH     1      48.991  -4.446  -1.253  0.00  0.00    +0.000 OA
ENDROOT
TORSDOF 0
