REMARK  Name = ../refined-set-2016/4rwj/4rwj_pocket.pdb
REMARK  245 active torsions:
REMARK  status: ('A' for Active; 'I' for Inactive)
REMARK    1  A    between atoms: _1  and  _3
REMARK    2  A    between atoms: _3  and  _4
REMARK    3  A    between atoms: _3  and  _6
REMARK    4  A    between atoms: _6  and  _7
REMARK    5  A    between atoms: _7  and  _8
REMARK    6  A    between atoms: _8  and  _9
REMARK    7  A    between atoms: _9  and  _10
REMARK    8  A    between atoms: _15  and  _16
REMARK    9  A    between atoms: _21  and  _23
REMARK   10  A    between atoms: _23  and  _24
REMARK   11  A    between atoms: _23  and  _26
REMARK   12  A    between atoms: _26  and  _27
REMARK   13  A    between atoms: _30  and  _32
REMARK   14  A    between atoms: _32  and  _33
REMARK   15  A    between atoms: _35  and  _37
REMARK   16  A    between atoms: _37  and  _38
REMARK   17  A    between atoms: _37  and  _40
REMARK   18  A    between atoms: _40  and  _41
REMARK   19  A    between atoms: _41  and  _42
REMARK   20  A    between atoms: _45  and  _47
REMARK   21  A    between atoms: _47  and  _48
REMARK   22  A    between atoms: _50  and  _52
REMARK   23  A    between atoms: _52  and  _53
REMARK   24  A    between atoms: _56  and  _58
REMARK   25  A    between atoms: _58  and  _59
REMARK   26  A    between atoms: _58  and  _61
REMARK   27  A    between atoms: _61  and  _62
REMARK   28  A    between atoms: _68  and  _70
REMARK   29  A    between atoms: _70  and  _71
REMARK   30  A    between atoms: _73  and  _75
REMARK   31  A    between atoms: _75  and  _76
REMARK   32  A    between atoms: _75  and  _78
REMARK   33  A    between atoms: _78  and  _79
REMARK   34  A    between atoms: _79  and  _80
REMARK   35  A    between atoms: _85  and  _87
REMARK   36  A    between atoms: _87  and  _88
REMARK   37  A    between atoms: _87  and  _90
REMARK   38  A    between atoms: _93  and  _95
REMARK   39  A    between atoms: _95  and  _96
REMARK   40  A    between atoms: _95  and  _98
REMARK   41  A    between atoms: _101  and  _103
REMARK   42  A    between atoms: _103  and  _104
REMARK   43  A    between atoms: _103  and  _106
REMARK   44  A    between atoms: _106  and  _107
REMARK   45  A    between atoms: _110  and  _112
REMARK   46  A    between atoms: _112  and  _113
REMARK   47  A    between atoms: _112  and  _115
REMARK   48  A    between atoms: _118  and  _120
REMARK   49  A    between atoms: _120  and  _121
REMARK   50  A    between atoms: _124  and  _126
REMARK   51  A    between atoms: _126  and  _127
REMARK   52  A    between atoms: _126  and  _129
REMARK   53  A    between atoms: _132  and  _134
REMARK   54  A    between atoms: _134  and  _135
REMARK   55  A    between atoms: _134  and  _137
REMARK   56  A    between atoms: _137  and  _138
REMARK   57  A    between atoms: _138  and  _139
REMARK   58  A    between atoms: _139  and  _140
REMARK   59  A    between atoms: _140  and  _141
REMARK   60  A    between atoms: _145  and  _147
REMARK   61  A    between atoms: _147  and  _148
REMARK   62  A    between atoms: _147  and  _150
REMARK   63  A    between atoms: _150  and  _151
REMARK   64  A    between atoms: _151  and  _152
REMARK   65  A    between atoms: _154  and  _156
REMARK   66  A    between atoms: _156  and  _157
REMARK   67  A    between atoms: _156  and  _159
REMARK   68  A    between atoms: _159  and  _160
REMARK   69  A    between atoms: _163  and  _165
REMARK   70  A    between atoms: _165  and  _166
REMARK   71  A    between atoms: _165  and  _168
REMARK   72  A    between atoms: _168  and  _169
REMARK   73  A    between atoms: _172  and  _174
REMARK   74  A    between atoms: _174  and  _175
REMARK   75  A    between atoms: _174  and  _177
REMARK   76  A    between atoms: _177  and  _178
REMARK   77  A    between atoms: _178  and  _179
REMARK   78  A    between atoms: _182  and  _184
REMARK   79  A    between atoms: _184  and  _185
REMARK   80  A    between atoms: _184  and  _187
REMARK   81  A    between atoms: _187  and  _188
REMARK   82  A    between atoms: _188  and  _189
REMARK   83  A    between atoms: _191  and  _193
REMARK   84  A    between atoms: _193  and  _194
REMARK   85  A    between atoms: _193  and  _196
REMARK   86  A    between atoms: _196  and  _197
REMARK   87  A    between atoms: _197  and  _198
REMARK   88  A    between atoms: _200  and  _202
REMARK   89  A    between atoms: _202  and  _203
REMARK   90  A    between atoms: _202  and  _205
REMARK   91  A    between atoms: _205  and  _206
REMARK   92  A    between atoms: _209  and  _211
REMARK   93  A    between atoms: _211  and  _212
REMARK   94  A    between atoms: _211  and  _214
REMARK   95  A    between atoms: _214  and  _215
REMARK   96  A    between atoms: _218  and  _220
REMARK   97  A    between atoms: _220  and  _221
REMARK   98  A    between atoms: _220  and  _223
REMARK   99  A    between atoms: _223  and  _224
REMARK  100  A    between atoms: _229  and  _231
REMARK  101  A    between atoms: _231  and  _232
REMARK  102  A    between atoms: _231  and  _234
REMARK  103  A    between atoms: _234  and  _235
REMARK  104  A    between atoms: _238  and  _240
REMARK  105  A    between atoms: _240  and  _241
REMARK  106  A    between atoms: _240  and  _243
REMARK  107  A    between atoms: _243  and  _244
REMARK  108  A    between atoms: _247  and  _249
REMARK  109  A    between atoms: _249  and  _250
REMARK  110  A    between atoms: _252  and  _254
REMARK  111  A    between atoms: _254  and  _255
REMARK  112  A    between atoms: _254  and  _257
REMARK  113  A    between atoms: _257  and  _258
REMARK  114  A    between atoms: _263  and  _264
REMARK  115  A    between atoms: _266  and  _268
REMARK  116  A    between atoms: _268  and  _269
REMARK  117  A    between atoms: _268  and  _271
REMARK  118  A    between atoms: _274  and  _276
REMARK  119  A    between atoms: _276  and  _277
REMARK  120  A    between atoms: _276  and  _279
REMARK  121  A    between atoms: _279  and  _280
REMARK  122  A    between atoms: _283  and  _285
REMARK  123  A    between atoms: _285  and  _286
REMARK  124  A    between atoms: _285  and  _288
REMARK  125  A    between atoms: _291  and  _293
REMARK  126  A    between atoms: _293  and  _294
REMARK  127  A    between atoms: _293  and  _296
REMARK  128  A    between atoms: _296  and  _297
REMARK  129  A    between atoms: _297  and  _298
REMARK  130  A    between atoms: _301  and  _303
REMARK  131  A    between atoms: _303  and  _304
REMARK  132  A    between atoms: _303  and  _306
REMARK  133  A    between atoms: _306  and  _307
REMARK  134  A    between atoms: _312  and  _313
REMARK  135  A    between atoms: _315  and  _317
REMARK  136  A    between atoms: _317  and  _318
REMARK  137  A    between atoms: _321  and  _323
REMARK  138  A    between atoms: _323  and  _324
REMARK  139  A    between atoms: _323  and  _326
REMARK  140  A    between atoms: _326  and  _327
REMARK  141  A    between atoms: _329  and  _331
REMARK  142  A    between atoms: _331  and  _332
REMARK  143  A    between atoms: _331  and  _334
REMARK  144  A    between atoms: _334  and  _335
REMARK  145  A    between atoms: _335  and  _336
REMARK  146  A    between atoms: _336  and  _337
REMARK  147  A    between atoms: _337  and  _338
REMARK  148  A    between atoms: _342  and  _344
REMARK  149  A    between atoms: _344  and  _345
REMARK  150  A    between atoms: _347  and  _349
REMARK  151  A    between atoms: _349  and  _350
REMARK  152  A    between atoms: _349  and  _352
REMARK  153  A    between atoms: _352  and  _353
REMARK  154  A    between atoms: _358  and  _360
REMARK  155  A    between atoms: _360  and  _361
REMARK  156  A    between atoms: _360  and  _363
REMARK  157  A    between atoms: _363  and  _364
REMARK  158  A    between atoms: _364  and  _365
REMARK  159  A    between atoms: _368  and  _370
REMARK  160  A    between atoms: _370  and  _371
REMARK  161  A    between atoms: _370  and  _373
REMARK  162  A    between atoms: _373  and  _374
REMARK  163  A    between atoms: _379  and  _380
REMARK  164  A    between atoms: _382  and  _384
REMARK  165  A    between atoms: _384  and  _385
REMARK  166  A    between atoms: _388  and  _390
REMARK  167  A    between atoms: _390  and  _391
REMARK  168  A    between atoms: _390  and  _393
REMARK  169  A    between atoms: _393  and  _394
REMARK  170  A    between atoms: _394  and  _395
REMARK  171  A    between atoms: _395  and  _396
REMARK  172  A    between atoms: _405  and  _407
REMARK  173  A    between atoms: _407  and  _408
REMARK  174  A    between atoms: _407  and  _410
REMARK  175  A    between atoms: _410  and  _411
REMARK  176  A    between atoms: _413  and  _415
REMARK  177  A    between atoms: _415  and  _416
REMARK  178  A    between atoms: _415  and  _418
REMARK  179  A    between atoms: _418  and  _419
REMARK  180  A    between atoms: _424  and  _426
REMARK  181  A    between atoms: _426  and  _427
REMARK  182  A    between atoms: _426  and  _429
REMARK  183  A    between atoms: _429  and  _430
REMARK  184  A    between atoms: _435  and  _437
REMARK  185  A    between atoms: _437  and  _438
REMARK  186  A    between atoms: _437  and  _440
REMARK  187  A    between atoms: _440  and  _441
REMARK  188  A    between atoms: _441  and  _442
REMARK  189  A    between atoms: _445  and  _447
REMARK  190  A    between atoms: _447  and  _448
REMARK  191  A    between atoms: _447  and  _450
REMARK  192  A    between atoms: _450  and  _451
REMARK  193  A    between atoms: _456  and  _458
REMARK  194  A    between atoms: _458  and  _459
REMARK  195  A    between atoms: _458  and  _461
REMARK  196  A    between atoms: _461  and  _462
REMARK  197  A    between atoms: _462  and  _463
REMARK  198  A    between atoms: _463  and  _464
REMARK  199  A    between atoms: _473  and  _475
REMARK  200  A    between atoms: _475  and  _476
REMARK  201  A    between atoms: _475  and  _478
REMARK  202  A    between atoms: _478  and  _479
REMARK  203  A    between atoms: _484  and  _486
REMARK  204  A    between atoms: _486  and  _487
REMARK  205  A    between atoms: _486  and  _489
REMARK  206  A    between atoms: _489  and  _490
REMARK  207  A    between atoms: _493  and  _495
REMARK  208  A    between atoms: _495  and  _496
REMARK  209  A    between atoms: _495  and  _498
REMARK  210  A    between atoms: _501  and  _503
REMARK  211  A    between atoms: _503  and  _504
REMARK  212  A    between atoms: _503  and  _506
REMARK  213  A    between atoms: _506  and  _507
REMARK  214  A    between atoms: _510  and  _512
REMARK  215  A    between atoms: _512  and  _513
REMARK  216  A    between atoms: _512  and  _515
REMARK  217  A    between atoms: _515  and  _516
REMARK  218  A    between atoms: _516  and  _517
REMARK  219  A    between atoms: _520  and  _522
REMARK  220  A    between atoms: _522  and  _523
REMARK  221  A    between atoms: _522  and  _525
REMARK  222  A    between atoms: _525  and  _526
REMARK  223  A    between atoms: _526  and  _527
REMARK  224  A    between atoms: _527  and  _528
REMARK  225  A    between atoms: _528  and  _529
REMARK  226  A    between atoms: _533  and  _535
REMARK  227  A    between atoms: _535  and  _536
REMARK  228  A    between atoms: _535  and  _538
REMARK  229  A    between atoms: _538  and  _539
REMARK  230  A    between atoms: _542  and  _544
REMARK  231  A    between atoms: _544  and  _545
REMARK  232  A    between atoms: _548  and  _550
REMARK  233  A    between atoms: _550  and  _551
REMARK  234  A    between atoms: _550  and  _553
REMARK  235  A    between atoms: _553  and  _554
REMARK  236  A    between atoms: _557  and  _559
REMARK  237  A    between atoms: _559  and  _560
REMARK  238  A    between atoms: _559  and  _562
REMARK  239  A    between atoms: _562  and  _563
REMARK  240  A    between atoms: _569  and  _571
REMARK  241  A    between atoms: _571  and  _572
REMARK  242  A    between atoms: _574  and  _576
REMARK  243  A    between atoms: _576  and  _577
REMARK  244  A    between atoms: _576  and  _579
REMARK  245  A    between atoms: _579  and  _580
REMARK                            x       y       z     vdW  Elec       q    Type
REMARK                         _______ _______ _______ _____ _____    ______ ____
ROOT
ATOM      1  C   ALA A   7     -18.060 -12.863   7.750  0.00  0.00    +0.241 C 
ATOM      2  N   PHE A   8     -17.321 -12.447   8.773  0.00  0.00    -0.297 N 
ATOM      3  H   PHE A   8     -17.737 -12.472   9.726  0.00  0.00    +0.150 HD
ATOM      4  O   ALA A   7     -17.655 -12.895   6.586  0.00  0.00    -0.273 OA
ENDROOT
BRANCH   1   5
ATOM      5  CA  ALA A   7     -19.469 -13.321   8.117  0.00  0.00    +0.149 C 
ATOM      6  CB  ALA A   7     -20.460 -12.177   7.972  0.00  0.00    +0.031 C 
BRANCH   5   8
ATOM      7  C   GLY A   6     -18.800 -14.945   9.794  0.00  0.00    +0.243 C 
ATOM      8  N   ALA A   7     -19.478 -13.843   9.481  0.00  0.00    -0.297 N 
ATOM      9  H   ALA A   7     -20.021 -13.348  10.217  0.00  0.00    +0.150 HD
ATOM     10  O   GLY A   6     -18.154 -15.588   8.965  0.00  0.00    -0.273 OA
BRANCH   7  11
ATOM     11  CA  GLY A   6     -18.827 -15.391  11.244  0.00  0.00    +0.176 C 
BRANCH  11  13
ATOM     12  C   GLU A   5     -21.176 -15.362  11.991  0.00  0.00    +0.241 C 
ATOM     13  N   GLY A   6     -19.920 -14.935  12.083  0.00  0.00    -0.295 N 
ATOM     14  H   GLY A   6     -19.705 -14.222  12.809  0.00  0.00    +0.150 HD
ATOM     15  O   GLU A   5     -21.587 -16.097  11.092  0.00  0.00    -0.273 OA
BRANCH  12  16
ATOM     16  CA  GLU A   5     -22.101 -14.853  13.100  0.00  0.00    +0.149 C 
BRANCH  16  18
ATOM     17  C   GLY A   4     -21.677 -12.506  12.536  0.00  0.00    +0.243 C 
ATOM     18  N   GLU A   5     -21.722 -13.483  13.440  0.00  0.00    -0.297 N 
ATOM     19  H   GLU A   5     -21.478 -13.262  14.427  0.00  0.00    +0.150 HD
ATOM     20  O   GLY A   4     -22.183 -12.590  11.416  0.00  0.00    -0.273 OA
BRANCH  17  21
ATOM     21  CA  GLY A   4     -20.938 -11.249  12.943  0.00  0.00    +0.176 C 
BRANCH  21  24
ATOM     22  C   LEU A   3     -19.609 -11.522  14.950  0.00  0.00    +0.241 C 
ATOM     23  O   LEU A   3     -18.795 -12.240  14.367  0.00  0.00    -0.273 OA
ATOM     24  N   GLY A   4     -20.703 -11.048  14.361  0.00  0.00    -0.295 N 
ATOM     25  H   GLY A   4     -21.402 -10.525  14.926  0.00  0.00    +0.150 HD
BRANCH  22  26
ATOM     26  CA  LEU A   3     -19.408 -11.149  16.415  0.00  0.00    +0.149 C 
BRANCH  26  29
ATOM     27  C   PRO A   2     -19.503 -12.755  18.252  0.00  0.00    +0.241 C 
ATOM     28  O   PRO A   2     -20.592 -12.336  18.648  0.00  0.00    -0.273 OA
ATOM     29  N   LEU A   3     -18.852 -12.234  17.217  0.00  0.00    -0.297 N 
ATOM     30  H   LEU A   3     -17.915 -12.612  16.970  0.00  0.00    +0.150 HD
BRANCH  27  37
ATOM     31  C   LYS A   1     -18.724 -12.842  21.190  0.00  0.00    +0.241 C 
ATOM     32  O   LYS A   1     -18.144 -11.846  20.754  0.00  0.00    -0.273 OA
ATOM     33  N   PRO A   2     -19.029 -13.901  20.421  0.00  0.00    -0.272 N 
ATOM     34  CD  PRO A   2     -19.483 -15.211  20.925  0.00  0.00    +0.094 C 
ATOM     35  CG  PRO A   2     -19.303 -16.119  19.741  0.00  0.00    +0.024 C 
ATOM     36  CB  PRO A   2     -19.442 -15.250  18.544  0.00  0.00    +0.031 C 
ATOM     37  CA  PRO A   2     -18.819 -13.918  18.968  0.00  0.00    +0.152 C 
BRANCH  31  38
ATOM     38  CA  LYS A   1     -19.111 -12.929  22.664  0.00  0.00    +0.145 C 
BRANCH  38  39
ATOM     39  N   LYS A   1     -18.213 -12.167  23.530  0.00  0.00    -0.238 NA
ATOM     40  H   LYS A   1     -18.525 -11.242  23.889  0.00  0.00    +0.142 HD
ENDBRANCH  38  39
BRANCH  38  41
ATOM     41  CB  LYS A   1     -20.555 -12.450  22.844  0.00  0.00    +0.026 C 
BRANCH  41  42
ATOM     42  CG  LYS A   1     -20.827 -11.048  22.312  0.00  0.00    -0.000 C 
BRANCH  42  43
ATOM     43  CD  LYS A   1     -22.322 -10.764  22.243  0.00  0.00    -0.024 C 
BRANCH  43  44
ATOM     44  CE  LYS A   1     -22.610  -9.385  21.662  0.00  0.00    -0.086 C 
BRANCH  44  45
ATOM     45  NZ  LYS A   1     -22.169  -8.284  22.565  0.00  0.00    +0.380 N 
ATOM     46  HZ1 LYS A   1     -22.669  -8.361  23.474  0.00  0.00    -0.089 HD
ATOM     47  HZ2 LYS A   1     -21.144  -8.358  22.725  0.00  0.00    -0.089 HD
ATOM     48  HZ3 LYS A   1     -22.387  -7.368  22.124  0.00  0.00    -0.089 HD
ENDBRANCH  44  45
ENDBRANCH  43  44
ENDBRANCH  42  43
ENDBRANCH  41  42
ENDBRANCH  38  41
ENDBRANCH  31  38
ENDBRANCH  27  37
ENDBRANCH  26  29
BRANCH  26  49
ATOM     49  CB  LEU A   3     -18.498  -9.925  16.499  0.00  0.00    +0.029 C 
BRANCH  49  50
ATOM     50  CG  LEU A   3     -18.990  -8.714  17.286  0.00  0.00    +0.002 C 
ATOM     51  CD2 LEU A   3     -19.449  -9.100  18.679  0.00  0.00    +0.000 C 
ATOM     52  CD1 LEU A   3     -17.898  -7.654  17.321  0.00  0.00    +0.000 C 
ENDBRANCH  49  50
ENDBRANCH  26  49
ENDBRANCH  22  26
ENDBRANCH  21  24
ENDBRANCH  17  21
ENDBRANCH  16  18
BRANCH  16  53
ATOM     53  CB  GLU A   5     -23.574 -14.942  12.694  0.00  0.00    +0.041 C 
BRANCH  53  54
ATOM     54  CG  GLU A   5     -24.528 -14.614  13.835  0.00  0.00    +0.116 C 
BRANCH  54  55
ATOM     55  CD  GLU A   5     -25.986 -14.779  13.454  0.00  0.00    +0.365 C 
ATOM     56  OE2 GLU A   5     -26.851 -14.625  14.343  0.00  0.00    -0.246 OA
ATOM     57  OE1 GLU A   5     -26.268 -15.061  12.271  0.00  0.00    -0.246 OA
ENDBRANCH  54  55
ENDBRANCH  53  54
ENDBRANCH  16  53
ENDBRANCH  12  16
ENDBRANCH  11  13
ENDBRANCH   7  11
ENDBRANCH   5   8
ENDBRANCH   1   5
BRANCH   2  58
ATOM     58  CA  PHE A   8     -15.957 -11.958   8.626  0.00  0.00    +0.153 C 
BRANCH  58  59
ATOM     59  C   PHE A   8     -14.974 -12.984   9.171  0.00  0.00    +0.241 C 
ATOM     60  N   GLY A   9     -15.467 -14.197   9.392  0.00  0.00    -0.295 N 
ATOM     61  H   GLY A   9     -16.461 -14.390   9.153  0.00  0.00    +0.150 HD
ATOM     62  O   PHE A   8     -13.800 -12.686   9.379  0.00  0.00    -0.273 OA
BRANCH  60  63
ATOM     63  CA  GLY A   9     -14.659 -15.260   9.957  0.00  0.00    +0.176 C 
BRANCH  63  64
ATOM     64  C   GLY A   9     -14.788 -15.197  11.466  0.00  0.00    +0.243 C 
ATOM     65  N   GLN A  10     -13.991 -15.986  12.177  0.00  0.00    -0.297 N 
ATOM     66  H   GLN A  10     -13.276 -16.566  11.694  0.00  0.00    +0.150 HD
ATOM     67  O   GLY A   9     -15.608 -14.440  11.986  0.00  0.00    -0.273 OA
BRANCH  65  68
ATOM     68  CA  GLN A  10     -14.111 -16.045  13.629  0.00  0.00    +0.149 C 
BRANCH  68  69
ATOM     69  C   GLN A  10     -13.693 -14.728  14.280  0.00  0.00    +0.241 C 
ATOM     70  N   VAL A  11     -14.687 -13.910  14.615  0.00  0.00    -0.297 N 
ATOM     71  H   VAL A  11     -15.666 -14.204  14.425  0.00  0.00    +0.150 HD
ATOM     72  O   GLN A  10     -12.506 -14.459  14.471  0.00  0.00    -0.273 OA
BRANCH  70  73
ATOM     73  CA  VAL A  11     -14.449 -12.614  15.240  0.00  0.00    +0.149 C 
BRANCH  73  74
ATOM     74  C   VAL A  11     -15.247 -12.484  16.536  0.00  0.00    +0.241 C 
ATOM     75  N   VAL A  12     -14.564 -12.109  17.612  0.00  0.00    -0.297 N 
ATOM     76  H   VAL A  12     -13.542 -11.934  17.528  0.00  0.00    +0.150 HD
ATOM     77  O   VAL A  11     -16.453 -12.733  16.564  0.00  0.00    -0.273 OA
BRANCH  75  78
ATOM     78  CA  VAL A  12     -15.210 -11.937  18.906  0.00  0.00    +0.149 C 
BRANCH  78  79
ATOM     79  C   VAL A  12     -15.157 -10.488  19.380  0.00  0.00    +0.241 C 
ATOM     80  N   LEU A  13     -16.093 -10.123  20.248  0.00  0.00    -0.298 N 
ATOM     81  H   LEU A  13     -16.888 -10.766  20.437  0.00  0.00    +0.150 HD
ATOM     82  O   VAL A  12     -14.300  -9.715  18.954  0.00  0.00    -0.273 OA
BRANCH  80  83
ATOM     83  CA  LEU A  13     -16.034  -8.844  20.942  0.00  0.00    +0.137 C 
BRANCH  83  84
ATOM     84  C   LEU A  13     -15.024  -8.960  22.072  0.00  0.00    +0.227 C 
ATOM     85  O   LEU A  13     -14.878 -10.027  22.668  0.00  0.00    -0.286 OA
ENDBRANCH  83  84
BRANCH  83  86
ATOM     86  CB  LEU A  13     -17.404  -8.449  21.492  0.00  0.00    +0.028 C 
BRANCH  86  87
ATOM     87  CG  LEU A  13     -17.508  -7.114  22.233  0.00  0.00    +0.002 C 
ATOM     88  CD2 LEU A  13     -18.951  -6.831  22.623  0.00  0.00    +0.000 C 
ATOM     89  CD1 LEU A  13     -16.938  -5.979  21.398  0.00  0.00    +0.000 C 
ENDBRANCH  86  87
ENDBRANCH  83  86
ENDBRANCH  80  83
ENDBRANCH  78  79
BRANCH  78  90
ATOM     90  CB  VAL A  12     -14.568 -12.841  19.983  0.00  0.00    +0.027 C 
ATOM     91  CG2 VAL A  12     -13.163 -12.366  20.318  0.00  0.00    +0.002 C 
ATOM     92  CG1 VAL A  12     -14.542 -14.285  19.515  0.00  0.00    +0.002 C 
ENDBRANCH  78  90
ENDBRANCH  75  78
ENDBRANCH  73  74
BRANCH  73  93
ATOM     93  CB  VAL A  11     -14.821 -11.454  14.292  0.00  0.00    +0.027 C 
ATOM     94  CG2 VAL A  11     -14.608 -10.111  14.979  0.00  0.00    +0.002 C 
ATOM     95  CG1 VAL A  11     -14.008 -11.531  13.012  0.00  0.00    +0.002 C 
ENDBRANCH  73  93
ENDBRANCH  70  73
ENDBRANCH  68  69
BRANCH  68  96
ATOM     96  CB  GLN A  10     -13.285 -17.204  14.184  0.00  0.00    +0.039 C 
BRANCH  96  97
ATOM     97  CG  GLN A  10     -13.438 -17.405  15.680  0.00  0.00    +0.087 C 
BRANCH  97  98
ATOM     98  CD  GLN A  10     -13.095 -18.816  16.111  0.00  0.00    +0.219 C 
ATOM     99  NE2 GLN A  10     -12.605 -18.959  17.338  0.00  0.00    -0.329 N 
ATOM    100 HE21 GLN A  10     -12.479 -18.126  17.948  0.00  0.00    +0.145 HD
ATOM    101 HE22 GLN A  10     -12.348 -19.904  17.688  0.00  0.00    +0.145 HD
ATOM    102  OE1 GLN A  10     -13.265 -19.767  15.347  0.00  0.00    -0.275 OA
ENDBRANCH  97  98
ENDBRANCH  96  97
ENDBRANCH  68  96
ENDBRANCH  65  68
ENDBRANCH  63  64
ENDBRANCH  60  63
ENDBRANCH  58  59
BRANCH  58 103
ATOM    103  CB  PHE A   8     -15.792 -10.618   9.344  0.00  0.00    +0.055 C 
BRANCH 103 104
ATOM    104  CG  PHE A   8     -16.844  -9.611   8.985  0.00  0.00    -0.020 A 
ATOM    105  CD2 PHE A   8     -17.860  -9.302   9.874  0.00  0.00    -0.004 A 
ATOM    106  CE2 PHE A   8     -18.834  -8.378   9.541  0.00  0.00    -0.000 A 
ATOM    107  CZ  PHE A   8     -18.802  -7.757   8.307  0.00  0.00    -0.000 A 
ATOM    108  CE1 PHE A   8     -17.796  -8.061   7.411  0.00  0.00    -0.000 A 
ATOM    109  CD1 PHE A   8     -16.827  -8.984   7.750  0.00  0.00    -0.004 A 
ENDBRANCH 103 104
ENDBRANCH  58 103
ENDBRANCH   2  58
TORSDOF 44
REMARK  Name = ../refined-set-2016/4rwj/4rwj_pocket.pdb
REMARK  245 active torsions:
REMARK  status: ('A' for Active; 'I' for Inactive)
REMARK    1  A    between atoms: _1  and  _3
REMARK    2  A    between atoms: _3  and  _4
REMARK    3  A    between atoms: _3  and  _6
REMARK    4  A    between atoms: _6  and  _7
REMARK    5  A    between atoms: _7  and  _8
REMARK    6  A    between atoms: _8  and  _9
REMARK    7  A    between atoms: _9  and  _10
REMARK    8  A    between atoms: _15  and  _16
REMARK    9  A    between atoms: _21  and  _23
REMARK   10  A    between atoms: _23  and  _24
REMARK   11  A    between atoms: _23  and  _26
REMARK   12  A    between atoms: _26  and  _27
REMARK   13  A    between atoms: _30  and  _32
REMARK   14  A    between atoms: _32  and  _33
REMARK   15  A    between atoms: _35  and  _37
REMARK   16  A    between atoms: _37  and  _38
REMARK   17  A    between atoms: _37  and  _40
REMARK   18  A    between atoms: _40  and  _41
REMARK   19  A    between atoms: _41  and  _42
REMARK   20  A    between atoms: _45  and  _47
REMARK   21  A    between atoms: _47  and  _48
REMARK   22  A    between atoms: _50  and  _52
REMARK   23  A    between atoms: _52  and  _53
REMARK   24  A    between atoms: _56  and  _58
REMARK   25  A    between atoms: _58  and  _59
REMARK   26  A    between atoms: _58  and  _61
REMARK   27  A    between atoms: _61  and  _62
REMARK   28  A    between atoms: _68  and  _70
REMARK   29  A    between atoms: _70  and  _71
REMARK   30  A    between atoms: _73  and  _75
REMARK   31  A    between atoms: _75  and  _76
REMARK   32  A    between atoms: _75  and  _78
REMARK   33  A    between atoms: _78  and  _79
REMARK   34  A    between atoms: _79  and  _80
REMARK   35  A    between atoms: _85  and  _87
REMARK   36  A    between atoms: _87  and  _88
REMARK   37  A    between atoms: _87  and  _90
REMARK   38  A    between atoms: _93  and  _95
REMARK   39  A    between atoms: _95  and  _96
REMARK   40  A    between atoms: _95  and  _98
REMARK   41  A    between atoms: _101  and  _103
REMARK   42  A    between atoms: _103  and  _104
REMARK   43  A    between atoms: _103  and  _106
REMARK   44  A    between atoms: _106  and  _107
REMARK   45  A    between atoms: _110  and  _112
REMARK   46  A    between atoms: _112  and  _113
REMARK   47  A    between atoms: _112  and  _115
REMARK   48  A    between atoms: _118  and  _120
REMARK   49  A    between atoms: _120  and  _121
REMARK   50  A    between atoms: _124  and  _126
REMARK   51  A    between atoms: _126  and  _127
REMARK   52  A    between atoms: _126  and  _129
REMARK   53  A    between atoms: _132  and  _134
REMARK   54  A    between atoms: _134  and  _135
REMARK   55  A    between atoms: _134  and  _137
REMARK   56  A    between atoms: _137  and  _138
REMARK   57  A    between atoms: _138  and  _139
REMARK   58  A    between atoms: _139  and  _140
REMARK   59  A    between atoms: _140  and  _141
REMARK   60  A    between atoms: _145  and  _147
REMARK   61  A    between atoms: _147  and  _148
REMARK   62  A    between atoms: _147  and  _150
REMARK   63  A    between atoms: _150  and  _151
REMARK   64  A    between atoms: _151  and  _152
REMARK   65  A    between atoms: _154  and  _156
REMARK   66  A    between atoms: _156  and  _157
REMARK   67  A    between atoms: _156  and  _159
REMARK   68  A    between atoms: _159  and  _160
REMARK   69  A    between atoms: _163  and  _165
REMARK   70  A    between atoms: _165  and  _166
REMARK   71  A    between atoms: _165  and  _168
REMARK   72  A    between atoms: _168  and  _169
REMARK   73  A    between atoms: _172  and  _174
REMARK   74  A    between atoms: _174  and  _175
REMARK   75  A    between atoms: _174  and  _177
REMARK   76  A    between atoms: _177  and  _178
REMARK   77  A    between atoms: _178  and  _179
REMARK   78  A    between atoms: _182  and  _184
REMARK   79  A    between atoms: _184  and  _185
REMARK   80  A    between atoms: _184  and  _187
REMARK   81  A    between atoms: _187  and  _188
REMARK   82  A    between atoms: _188  and  _189
REMARK   83  A    between atoms: _191  and  _193
REMARK   84  A    between atoms: _193  and  _194
REMARK   85  A    between atoms: _193  and  _196
REMARK   86  A    between atoms: _196  and  _197
REMARK   87  A    between atoms: _197  and  _198
REMARK   88  A    between atoms: _200  and  _202
REMARK   89  A    between atoms: _202  and  _203
REMARK   90  A    between atoms: _202  and  _205
REMARK   91  A    between atoms: _205  and  _206
REMARK   92  A    between atoms: _209  and  _211
REMARK   93  A    between atoms: _211  and  _212
REMARK   94  A    between atoms: _211  and  _214
REMARK   95  A    between atoms: _214  and  _215
REMARK   96  A    between atoms: _218  and  _220
REMARK   97  A    between atoms: _220  and  _221
REMARK   98  A    between atoms: _220  and  _223
REMARK   99  A    between atoms: _223  and  _224
REMARK  100  A    between atoms: _229  and  _231
REMARK  101  A    between atoms: _231  and  _232
REMARK  102  A    between atoms: _231  and  _234
REMARK  103  A    between atoms: _234  and  _235
REMARK  104  A    between atoms: _238  and  _240
REMARK  105  A    between atoms: _240  and  _241
REMARK  106  A    between atoms: _240  and  _243
REMARK  107  A    between atoms: _243  and  _244
REMARK  108  A    between atoms: _247  and  _249
REMARK  109  A    between atoms: _249  and  _250
REMARK  110  A    between atoms: _252  and  _254
REMARK  111  A    between atoms: _254  and  _255
REMARK  112  A    between atoms: _254  and  _257
REMARK  113  A    between atoms: _257  and  _258
REMARK  114  A    between atoms: _263  and  _264
REMARK  115  A    between atoms: _266  and  _268
REMARK  116  A    between atoms: _268  and  _269
REMARK  117  A    between atoms: _268  and  _271
REMARK  118  A    between atoms: _274  and  _276
REMARK  119  A    between atoms: _276  and  _277
REMARK  120  A    between atoms: _276  and  _279
REMARK  121  A    between atoms: _279  and  _280
REMARK  122  A    between atoms: _283  and  _285
REMARK  123  A    between atoms: _285  and  _286
REMARK  124  A    between atoms: _285  and  _288
REMARK  125  A    between atoms: _291  and  _293
REMARK  126  A    between atoms: _293  and  _294
REMARK  127  A    between atoms: _293  and  _296
REMARK  128  A    between atoms: _296  and  _297
REMARK  129  A    between atoms: _297  and  _298
REMARK  130  A    between atoms: _301  and  _303
REMARK  131  A    between atoms: _303  and  _304
REMARK  132  A    between atoms: _303  and  _306
REMARK  133  A    between atoms: _306  and  _307
REMARK  134  A    between atoms: _312  and  _313
REMARK  135  A    between atoms: _315  and  _317
REMARK  136  A    between atoms: _317  and  _318
REMARK  137  A    between atoms: _321  and  _323
REMARK  138  A    between atoms: _323  and  _324
REMARK  139  A    between atoms: _323  and  _326
REMARK  140  A    between atoms: _326  and  _327
REMARK  141  A    between atoms: _329  and  _331
REMARK  142  A    between atoms: _331  and  _332
REMARK  143  A    between atoms: _331  and  _334
REMARK  144  A    between atoms: _334  and  _335
REMARK  145  A    between atoms: _335  and  _336
REMARK  146  A    between atoms: _336  and  _337
REMARK  147  A    between atoms: _337  and  _338
REMARK  148  A    between atoms: _342  and  _344
REMARK  149  A    between atoms: _344  and  _345
REMARK  150  A    between atoms: _347  and  _349
REMARK  151  A    between atoms: _349  and  _350
REMARK  152  A    between atoms: _349  and  _352
REMARK  153  A    between atoms: _352  and  _353
REMARK  154  A    between atoms: _358  and  _360
REMARK  155  A    between atoms: _360  and  _361
REMARK  156  A    between atoms: _360  and  _363
REMARK  157  A    between atoms: _363  and  _364
REMARK  158  A    between atoms: _364  and  _365
REMARK  159  A    between atoms: _368  and  _370
REMARK  160  A    between atoms: _370  and  _371
REMARK  161  A    between atoms: _370  and  _373
REMARK  162  A    between atoms: _373  and  _374
REMARK  163  A    between atoms: _379  and  _380
REMARK  164  A    between atoms: _382  and  _384
REMARK  165  A    between atoms: _384  and  _385
REMARK  166  A    between atoms: _388  and  _390
REMARK  167  A    between atoms: _390  and  _391
REMARK  168  A    between atoms: _390  and  _393
REMARK  169  A    between atoms: _393  and  _394
REMARK  170  A    between atoms: _394  and  _395
REMARK  171  A    between atoms: _395  and  _396
REMARK  172  A    between atoms: _405  and  _407
REMARK  173  A    between atoms: _407  and  _408
REMARK  174  A    between atoms: _407  and  _410
REMARK  175  A    between atoms: _410  and  _411
REMARK  176  A    between atoms: _413  and  _415
REMARK  177  A    between atoms: _415  and  _416
REMARK  178  A    between atoms: _415  and  _418
REMARK  179  A    between atoms: _418  and  _419
REMARK  180  A    between atoms: _424  and  _426
REMARK  181  A    between atoms: _426  and  _427
REMARK  182  A    between atoms: _426  and  _429
REMARK  183  A    between atoms: _429  and  _430
REMARK  184  A    between atoms: _435  and  _437
REMARK  185  A    between atoms: _437  and  _438
REMARK  186  A    between atoms: _437  and  _440
REMARK  187  A    between atoms: _440  and  _441
REMARK  188  A    between atoms: _441  and  _442
REMARK  189  A    between atoms: _445  and  _447
REMARK  190  A    between atoms: _447  and  _448
REMARK  191  A    between atoms: _447  and  _450
REMARK  192  A    between atoms: _450  and  _451
REMARK  193  A    between atoms: _456  and  _458
REMARK  194  A    between atoms: _458  and  _459
REMARK  195  A    between atoms: _458  and  _461
REMARK  196  A    between atoms: _461  and  _462
REMARK  197  A    between atoms: _462  and  _463
REMARK  198  A    between atoms: _463  and  _464
REMARK  199  A    between atoms: _473  and  _475
REMARK  200  A    between atoms: _475  and  _476
REMARK  201  A    between atoms: _475  and  _478
REMARK  202  A    between atoms: _478  and  _479
REMARK  203  A    between atoms: _484  and  _486
REMARK  204  A    between atoms: _486  and  _487
REMARK  205  A    between atoms: _486  and  _489
REMARK  206  A    between atoms: _489  and  _490
REMARK  207  A    between atoms: _493  and  _495
REMARK  208  A    between atoms: _495  and  _496
REMARK  209  A    between atoms: _495  and  _498
REMARK  210  A    between atoms: _501  and  _503
REMARK  211  A    between atoms: _503  and  _504
REMARK  212  A    between atoms: _503  and  _506
REMARK  213  A    between atoms: _506  and  _507
REMARK  214  A    between atoms: _510  and  _512
REMARK  215  A    between atoms: _512  and  _513
REMARK  216  A    between atoms: _512  and  _515
REMARK  217  A    between atoms: _515  and  _516
REMARK  218  A    between atoms: _516  and  _517
REMARK  219  A    between atoms: _520  and  _522
REMARK  220  A    between atoms: _522  and  _523
REMARK  221  A    between atoms: _522  and  _525
REMARK  222  A    between atoms: _525  and  _526
REMARK  223  A    between atoms: _526  and  _527
REMARK  224  A    between atoms: _527  and  _528
REMARK  225  A    between atoms: _528  and  _529
REMARK  226  A    between atoms: _533  and  _535
REMARK  227  A    between atoms: _535  and  _536
REMARK  228  A    between atoms: _535  and  _538
REMARK  229  A    between atoms: _538  and  _539
REMARK  230  A    between atoms: _542  and  _544
REMARK  231  A    between atoms: _544  and  _545
REMARK  232  A    between atoms: _548  and  _550
REMARK  233  A    between atoms: _550  and  _551
REMARK  234  A    between atoms: _550  and  _553
REMARK  235  A    between atoms: _553  and  _554
REMARK  236  A    between atoms: _557  and  _559
REMARK  237  A    between atoms: _559  and  _560
REMARK  238  A    between atoms: _559  and  _562
REMARK  239  A    between atoms: _562  and  _563
REMARK  240  A    between atoms: _569  and  _571
REMARK  241  A    between atoms: _571  and  _572
REMARK  242  A    between atoms: _574  and  _576
REMARK  243  A    between atoms: _576  and  _577
REMARK  244  A    between atoms: _576  and  _579
REMARK  245  A    between atoms: _579  and  _580
REMARK                            x       y       z     vdW  Elec       q    Type
REMARK                         _______ _______ _______ _____ _____    ______ ____
ROOT
ATOM      1  C   VAL A   3     -10.983 -10.717  16.500  0.00  0.00    +0.241 C 
ATOM      2  O   VAL A   3     -11.826 -11.581  16.732  0.00  0.00    -0.273 OA
ATOM      3  N   LYS A   4     -10.224 -10.719  15.407  0.00  0.00    -0.297 N 
ATOM      4  H   LYS A   4      -9.571  -9.927  15.240  0.00  0.00    +0.150 HD
ENDROOT
BRANCH   3   5
ATOM      5  CA  LYS A   4     -10.287 -11.806  14.438  0.00  0.00    +0.149 C 
BRANCH   5   6
ATOM      6  C   LYS A   4      -9.169 -12.817  14.678  0.00  0.00    +0.241 C 
ATOM      7  O   LYS A   4      -8.029 -12.447  14.964  0.00  0.00    -0.273 OA
ATOM      8  N   MET A   5      -9.513 -14.094  14.562  0.00  0.00    -0.298 N 
ATOM      9  H   MET A   5     -10.495 -14.328  14.312  0.00  0.00    +0.150 HD
BRANCH   8  10
ATOM     10  CA  MET A   5      -8.565 -15.178  14.772  0.00  0.00    +0.138 C 
BRANCH  10  11
ATOM     11  C   MET A   5      -8.871 -16.325  13.818  0.00  0.00    +0.227 C 
ATOM     12  O   MET A   5      -9.897 -16.319  13.138  0.00  0.00    -0.286 OA
ENDBRANCH  10  11
BRANCH  10  13
ATOM     13  CB  MET A   5      -8.615 -15.657  16.223  0.00  0.00    +0.039 C 
BRANCH  13  14
ATOM     14  CG  MET A   5      -9.870 -16.442  16.567  0.00  0.00    +0.060 C 
BRANCH  14  15
ATOM     15  SD  MET A   5     -10.125 -16.614  18.342  0.00  0.00    -0.139 S 
ATOM     16  CE  MET A   5     -10.454 -14.913  18.793  0.00  0.00    +0.069 C 
ENDBRANCH  14  15
ENDBRANCH  13  14
ENDBRANCH  10  13
ENDBRANCH   8  10
ENDBRANCH   5   6
BRANCH   5  17
ATOM     17  CB  LYS A   4     -10.216 -11.270  13.006  0.00  0.00    +0.029 C 
BRANCH  17  18
ATOM     18  CG  LYS A   4     -10.395 -12.347  11.944  0.00  0.00    +0.000 C 
BRANCH  18  19
ATOM     19  CD  LYS A   4     -10.663 -11.757  10.568  0.00  0.00    -0.024 C 
BRANCH  19  20
ATOM     20  CE  LYS A   4     -10.634 -12.837   9.495  0.00  0.00    -0.086 C 
BRANCH  20  21
ATOM     21  NZ  LYS A   4     -11.031 -12.314   8.159  0.00  0.00    +0.380 N 
ATOM     22  HZ1 LYS A   4     -11.998 -11.935   8.210  0.00  0.00    -0.089 HD
ATOM     23  HZ2 LYS A   4     -10.375 -11.558   7.875  0.00  0.00    -0.089 HD
ATOM     24  HZ3 LYS A   4     -10.996 -13.085   7.462  0.00  0.00    -0.089 HD
ENDBRANCH  20  21
ENDBRANCH  19  20
ENDBRANCH  18  19
ENDBRANCH  17  18
ENDBRANCH   5  17
ENDBRANCH   3   5
BRANCH   1  25
ATOM     25  CA  VAL A   3     -10.750  -9.575  17.480  0.00  0.00    +0.149 C 
BRANCH  25  27
ATOM     26  C   ALA A   2     -11.872  -7.430  17.365  0.00  0.00    +0.241 C 
ATOM     27  N   VAL A   3     -11.933  -8.735  17.610  0.00  0.00    -0.297 N 
ATOM     28  H   VAL A   3     -12.837  -9.162  17.898  0.00  0.00    +0.150 HD
ATOM     29  O   ALA A   2     -10.851  -6.877  16.960  0.00  0.00    -0.273 OA
BRANCH  26  30
ATOM     30  CA  ALA A   2     -13.139  -6.623  17.602  0.00  0.00    +0.149 C 
ATOM     31  CB  ALA A   2     -13.857  -6.349  16.293  0.00  0.00    +0.031 C 
BRANCH  30  34
ATOM     32  C   VAL A   1     -13.090  -5.151  19.545  0.00  0.00    +0.238 C 
ATOM     33  O   VAL A   1     -13.779  -5.917  20.222  0.00  0.00    -0.274 OA
ATOM     34  N   ALA A   2     -12.788  -5.378  18.271  0.00  0.00    -0.297 N 
ATOM     35  H   ALA A   2     -12.285  -4.643  17.734  0.00  0.00    +0.150 HD
BRANCH  32  36
ATOM     36  CA  VAL A   1     -12.523  -3.871  20.146  0.00  0.00    +0.145 C 
BRANCH  36  37
ATOM     37  CB  VAL A   1     -10.997  -4.032  20.294  0.00  0.00    +0.025 C 
ATOM     38  CG2 VAL A   1     -10.678  -5.160  21.268  0.00  0.00    +0.002 C 
ATOM     39  CG1 VAL A   1     -10.353  -2.726  20.747  0.00  0.00    +0.002 C 
ENDBRANCH  36  37
BRANCH  36  40
ATOM     40  N   VAL A   1     -13.152  -3.558  21.422  0.00  0.00    -0.238 NA
ATOM     41  H   VAL A   1     -13.270  -4.313  22.128  0.00  0.00    +0.142 HD
ENDBRANCH  36  40
ENDBRANCH  32  36
ENDBRANCH  30  34
ENDBRANCH  26  30
ENDBRANCH  25  27
BRANCH  25  42
ATOM     42  CB  VAL A   3     -10.324 -10.168  18.843  0.00  0.00    +0.027 C 
ATOM     43  CG2 VAL A   3     -10.042  -9.060  19.845  0.00  0.00    +0.002 C 
ATOM     44  CG1 VAL A   3      -9.102 -11.058  18.676  0.00  0.00    +0.002 C 
ENDBRANCH  25  42
ENDBRANCH   1  25
TORSDOF 20
REMARK  Name = ../refined-set-2016/4rwj/4rwj_pocket.pdb
REMARK  245 active torsions:
REMARK  status: ('A' for Active; 'I' for Inactive)
REMARK    1  A    between atoms: _1  and  _3
REMARK    2  A    between atoms: _3  and  _4
REMARK    3  A    between atoms: _3  and  _6
REMARK    4  A    between atoms: _6  and  _7
REMARK    5  A    between atoms: _7  and  _8
REMARK    6  A    between atoms: _8  and  _9
REMARK    7  A    between atoms: _9  and  _10
REMARK    8  A    between atoms: _15  and  _16
REMARK    9  A    between atoms: _21  and  _23
REMARK   10  A    between atoms: _23  and  _24
REMARK   11  A    between atoms: _23  and  _26
REMARK   12  A    between atoms: _26  and  _27
REMARK   13  A    between atoms: _30  and  _32
REMARK   14  A    between atoms: _32  and  _33
REMARK   15  A    between atoms: _35  and  _37
REMARK   16  A    between atoms: _37  and  _38
REMARK   17  A    between atoms: _37  and  _40
REMARK   18  A    between atoms: _40  and  _41
REMARK   19  A    between atoms: _41  and  _42
REMARK   20  A    between atoms: _45  and  _47
REMARK   21  A    between atoms: _47  and  _48
REMARK   22  A    between atoms: _50  and  _52
REMARK   23  A    between atoms: _52  and  _53
REMARK   24  A    between atoms: _56  and  _58
REMARK   25  A    between atoms: _58  and  _59
REMARK   26  A    between atoms: _58  and  _61
REMARK   27  A    between atoms: _61  and  _62
REMARK   28  A    between atoms: _68  and  _70
REMARK   29  A    between atoms: _70  and  _71
REMARK   30  A    between atoms: _73  and  _75
REMARK   31  A    between atoms: _75  and  _76
REMARK   32  A    between atoms: _75  and  _78
REMARK   33  A    between atoms: _78  and  _79
REMARK   34  A    between atoms: _79  and  _80
REMARK   35  A    between atoms: _85  and  _87
REMARK   36  A    between atoms: _87  and  _88
REMARK   37  A    between atoms: _87  and  _90
REMARK   38  A    between atoms: _93  and  _95
REMARK   39  A    between atoms: _95  and  _96
REMARK   40  A    between atoms: _95  and  _98
REMARK   41  A    between atoms: _101  and  _103
REMARK   42  A    between atoms: _103  and  _104
REMARK   43  A    between atoms: _103  and  _106
REMARK   44  A    between atoms: _106  and  _107
REMARK   45  A    between atoms: _110  and  _112
REMARK   46  A    between atoms: _112  and  _113
REMARK   47  A    between atoms: _112  and  _115
REMARK   48  A    between atoms: _118  and  _120
REMARK   49  A    between atoms: _120  and  _121
REMARK   50  A    between atoms: _124  and  _126
REMARK   51  A    between atoms: _126  and  _127
REMARK   52  A    between atoms: _126  and  _129
REMARK   53  A    between atoms: _132  and  _134
REMARK   54  A    between atoms: _134  and  _135
REMARK   55  A    between atoms: _134  and  _137
REMARK   56  A    between atoms: _137  and  _138
REMARK   57  A    between atoms: _138  and  _139
REMARK   58  A    between atoms: _139  and  _140
REMARK   59  A    between atoms: _140  and  _141
REMARK   60  A    between atoms: _145  and  _147
REMARK   61  A    between atoms: _147  and  _148
REMARK   62  A    between atoms: _147  and  _150
REMARK   63  A    between atoms: _150  and  _151
REMARK   64  A    between atoms: _151  and  _152
REMARK   65  A    between atoms: _154  and  _156
REMARK   66  A    between atoms: _156  and  _157
REMARK   67  A    between atoms: _156  and  _159
REMARK   68  A    between atoms: _159  and  _160
REMARK   69  A    between atoms: _163  and  _165
REMARK   70  A    between atoms: _165  and  _166
REMARK   71  A    between atoms: _165  and  _168
REMARK   72  A    between atoms: _168  and  _169
REMARK   73  A    between atoms: _172  and  _174
REMARK   74  A    between atoms: _174  and  _175
REMARK   75  A    between atoms: _174  and  _177
REMARK   76  A    between atoms: _177  and  _178
REMARK   77  A    between atoms: _178  and  _179
REMARK   78  A    between atoms: _182  and  _184
REMARK   79  A    between atoms: _184  and  _185
REMARK   80  A    between atoms: _184  and  _187
REMARK   81  A    between atoms: _187  and  _188
REMARK   82  A    between atoms: _188  and  _189
REMARK   83  A    between atoms: _191  and  _193
REMARK   84  A    between atoms: _193  and  _194
REMARK   85  A    between atoms: _193  and  _196
REMARK   86  A    between atoms: _196  and  _197
REMARK   87  A    between atoms: _197  and  _198
REMARK   88  A    between atoms: _200  and  _202
REMARK   89  A    between atoms: _202  and  _203
REMARK   90  A    between atoms: _202  and  _205
REMARK   91  A    between atoms: _205  and  _206
REMARK   92  A    between atoms: _209  and  _211
REMARK   93  A    between atoms: _211  and  _212
REMARK   94  A    between atoms: _211  and  _214
REMARK   95  A    between atoms: _214  and  _215
REMARK   96  A    between atoms: _218  and  _220
REMARK   97  A    between atoms: _220  and  _221
REMARK   98  A    between atoms: _220  and  _223
REMARK   99  A    between atoms: _223  and  _224
REMARK  100  A    between atoms: _229  and  _231
REMARK  101  A    between atoms: _231  and  _232
REMARK  102  A    between atoms: _231  and  _234
REMARK  103  A    between atoms: _234  and  _235
REMARK  104  A    between atoms: _238  and  _240
REMARK  105  A    between atoms: _240  and  _241
REMARK  106  A    between atoms: _240  and  _243
REMARK  107  A    between atoms: _243  and  _244
REMARK  108  A    between atoms: _247  and  _249
REMARK  109  A    between atoms: _249  and  _250
REMARK  110  A    between atoms: _252  and  _254
REMARK  111  A    between atoms: _254  and  _255
REMARK  112  A    between atoms: _254  and  _257
REMARK  113  A    between atoms: _257  and  _258
REMARK  114  A    between atoms: _263  and  _264
REMARK  115  A    between atoms: _266  and  _268
REMARK  116  A    between atoms: _268  and  _269
REMARK  117  A    between atoms: _268  and  _271
REMARK  118  A    between atoms: _274  and  _276
REMARK  119  A    between atoms: _276  and  _277
REMARK  120  A    between atoms: _276  and  _279
REMARK  121  A    between atoms: _279  and  _280
REMARK  122  A    between atoms: _283  and  _285
REMARK  123  A    between atoms: _285  and  _286
REMARK  124  A    between atoms: _285  and  _288
REMARK  125  A    between atoms: _291  and  _293
REMARK  126  A    between atoms: _293  and  _294
REMARK  127  A    between atoms: _293  and  _296
REMARK  128  A    between atoms: _296  and  _297
REMARK  129  A    between atoms: _297  and  _298
REMARK  130  A    between atoms: _301  and  _303
REMARK  131  A    between atoms: _303  and  _304
REMARK  132  A    between atoms: _303  and  _306
REMARK  133  A    between atoms: _306  and  _307
REMARK  134  A    between atoms: _312  and  _313
REMARK  135  A    between atoms: _315  and  _317
REMARK  136  A    between atoms: _317  and  _318
REMARK  137  A    between atoms: _321  and  _323
REMARK  138  A    between atoms: _323  and  _324
REMARK  139  A    between atoms: _323  and  _326
REMARK  140  A    between atoms: _326  and  _327
REMARK  141  A    between atoms: _329  and  _331
REMARK  142  A    between atoms: _331  and  _332
REMARK  143  A    between atoms: _331  and  _334
REMARK  144  A    between atoms: _334  and  _335
REMARK  145  A    between atoms: _335  and  _336
REMARK  146  A    between atoms: _336  and  _337
REMARK  147  A    between atoms: _337  and  _338
REMARK  148  A    between atoms: _342  and  _344
REMARK  149  A    between atoms: _344  and  _345
REMARK  150  A    between atoms: _347  and  _349
REMARK  151  A    between atoms: _349  and  _350
REMARK  152  A    between atoms: _349  and  _352
REMARK  153  A    between atoms: _352  and  _353
REMARK  154  A    between atoms: _358  and  _360
REMARK  155  A    between atoms: _360  and  _361
REMARK  156  A    between atoms: _360  and  _363
REMARK  157  A    between atoms: _363  and  _364
REMARK  158  A    between atoms: _364  and  _365
REMARK  159  A    between atoms: _368  and  _370
REMARK  160  A    between atoms: _370  and  _371
REMARK  161  A    between atoms: _370  and  _373
REMARK  162  A    between atoms: _373  and  _374
REMARK  163  A    between atoms: _379  and  _380
REMARK  164  A    between atoms: _382  and  _384
REMARK  165  A    between atoms: _384  and  _385
REMARK  166  A    between atoms: _388  and  _390
REMARK  167  A    between atoms: _390  and  _391
REMARK  168  A    between atoms: _390  and  _393
REMARK  169  A    between atoms: _393  and  _394
REMARK  170  A    between atoms: _394  and  _395
REMARK  171  A    between atoms: _395  and  _396
REMARK  172  A    between atoms: _405  and  _407
REMARK  173  A    between atoms: _407  and  _408
REMARK  174  A    between atoms: _407  and  _410
REMARK  175  A    between atoms: _410  and  _411
REMARK  176  A    between atoms: _413  and  _415
REMARK  177  A    between atoms: _415  and  _416
REMARK  178  A    between atoms: _415  and  _418
REMARK  179  A    between atoms: _418  and  _419
REMARK  180  A    between atoms: _424  and  _426
REMARK  181  A    between atoms: _426  and  _427
REMARK  182  A    between atoms: _426  and  _429
REMARK  183  A    between atoms: _429  and  _430
REMARK  184  A    between atoms: _435  and  _437
REMARK  185  A    between atoms: _437  and  _438
REMARK  186  A    between atoms: _437  and  _440
REMARK  187  A    between atoms: _440  and  _441
REMARK  188  A    between atoms: _441  and  _442
REMARK  189  A    between atoms: _445  and  _447
REMARK  190  A    between atoms: _447  and  _448
REMARK  191  A    between atoms: _447  and  _450
REMARK  192  A    between atoms: _450  and  _451
REMARK  193  A    between atoms: _456  and  _458
REMARK  194  A    between atoms: _458  and  _459
REMARK  195  A    between atoms: _458  and  _461
REMARK  196  A    between atoms: _461  and  _462
REMARK  197  A    between atoms: _462  and  _463
REMARK  198  A    between atoms: _463  and  _464
REMARK  199  A    between atoms: _473  and  _475
REMARK  200  A    between atoms: _475  and  _476
REMARK  201  A    between atoms: _475  and  _478
REMARK  202  A    between atoms: _478  and  _479
REMARK  203  A    between atoms: _484  and  _486
REMARK  204  A    between atoms: _486  and  _487
REMARK  205  A    between atoms: _486  and  _489
REMARK  206  A    between atoms: _489  and  _490
REMARK  207  A    between atoms: _493  and  _495
REMARK  208  A    between atoms: _495  and  _496
REMARK  209  A    between atoms: _495  and  _498
REMARK  210  A    between atoms: _501  and  _503
REMARK  211  A    between atoms: _503  and  _504
REMARK  212  A    between atoms: _503  and  _506
REMARK  213  A    between atoms: _506  and  _507
REMARK  214  A    between atoms: _510  and  _512
REMARK  215  A    between atoms: _512  and  _513
REMARK  216  A    between atoms: _512  and  _515
REMARK  217  A    between atoms: _515  and  _516
REMARK  218  A    between atoms: _516  and  _517
REMARK  219  A    between atoms: _520  and  _522
REMARK  220  A    between atoms: _522  and  _523
REMARK  221  A    between atoms: _522  and  _525
REMARK  222  A    between atoms: _525  and  _526
REMARK  223  A    between atoms: _526  and  _527
REMARK  224  A    between atoms: _527  and  _528
REMARK  225  A    between atoms: _528  and  _529
REMARK  226  A    between atoms: _533  and  _535
REMARK  227  A    between atoms: _535  and  _536
REMARK  228  A    between atoms: _535  and  _538
REMARK  229  A    between atoms: _538  and  _539
REMARK  230  A    between atoms: _542  and  _544
REMARK  231  A    between atoms: _544  and  _545
REMARK  232  A    between atoms: _548  and  _550
REMARK  233  A    between atoms: _550  and  _551
REMARK  234  A    between atoms: _550  and  _553
REMARK  235  A    between atoms: _553  and  _554
REMARK  236  A    between atoms: _557  and  _559
REMARK  237  A    between atoms: _559  and  _560
REMARK  238  A    between atoms: _559  and  _562
REMARK  239  A    between atoms: _562  and  _563
REMARK  240  A    between atoms: _569  and  _571
REMARK  241  A    between atoms: _571  and  _572
REMARK  242  A    between atoms: _574  and  _576
REMARK  243  A    between atoms: _576  and  _577
REMARK  244  A    between atoms: _576  and  _579
REMARK  245  A    between atoms: _579  and  _580
REMARK                            x       y       z     vdW  Elec       q    Type
REMARK                         _______ _______ _______ _____ _____    ______ ____
ROOT
ATOM      1  C   ASP A   1      -4.619 -13.768   5.588  0.00  0.00    +0.239 C 
ATOM      2  N   LEU A   2      -4.743 -14.262   6.816  0.00  0.00    -0.298 N 
ATOM      3  H   LEU A   2      -4.649 -15.287   6.963  0.00  0.00    +0.150 HD
ATOM      4  O   ASP A   1      -4.695 -12.563   5.340  0.00  0.00    -0.274 OA
ENDROOT
BRANCH   1   5
ATOM      5  CA  ASP A   1      -4.378 -14.775   4.466  0.00  0.00    +0.156 C 
BRANCH   5   6
ATOM      6  N   ASP A   1      -3.358 -15.754   4.819  0.00  0.00    -0.238 NA
ATOM      7  H   ASP A   1      -3.620 -16.759   4.874  0.00  0.00    +0.142 HD
ENDBRANCH   5   6
BRANCH   5   8
ATOM      8  CB  ASP A   1      -5.689 -15.475   4.105  0.00  0.00    +0.140 C 
BRANCH   8   9
ATOM      9  CG  ASP A   1      -5.595 -16.253   2.808  0.00  0.00    +0.367 C 
ATOM     10  OD2 ASP A   1      -6.475 -17.104   2.557  0.00  0.00    -0.246 OA
ATOM     11  OD1 ASP A   1      -4.645 -16.007   2.036  0.00  0.00    -0.246 OA
ENDBRANCH   8   9
ENDBRANCH   5   8
ENDBRANCH   1   5
BRANCH   2  12
ATOM     12  CA  LEU A   2      -5.008 -13.397   7.963  0.00  0.00    +0.137 C 
BRANCH  12  13
ATOM     13  C   LEU A   2      -3.847 -12.438   8.204  0.00  0.00    +0.227 C 
ATOM     14  O   LEU A   2      -4.052 -11.269   8.532  0.00  0.00    -0.286 OA
ENDBRANCH  12  13
BRANCH  12  15
ATOM     15  CB  LEU A   2      -5.277 -14.230   9.218  0.00  0.00    +0.028 C 
BRANCH  15  16
ATOM     16  CG  LEU A   2      -5.617 -13.440  10.485  0.00  0.00    +0.002 C 
ATOM     17  CD2 LEU A   2      -5.969 -14.377  11.632  0.00  0.00    +0.000 C 
ATOM     18  CD1 LEU A   2      -6.759 -12.469  10.214  0.00  0.00    +0.000 C 
ENDBRANCH  15  16
ENDBRANCH  12  15
ENDBRANCH   2  12
TORSDOF 8
REMARK  Name = ../refined-set-2016/4rwj/4rwj_pocket.pdb
REMARK  245 active torsions:
REMARK  status: ('A' for Active; 'I' for Inactive)
REMARK    1  A    between atoms: _1  and  _3
REMARK    2  A    between atoms: _3  and  _4
REMARK    3  A    between atoms: _3  and  _6
REMARK    4  A    between atoms: _6  and  _7
REMARK    5  A    between atoms: _7  and  _8
REMARK    6  A    between atoms: _8  and  _9
REMARK    7  A    between atoms: _9  and  _10
REMARK    8  A    between atoms: _15  and  _16
REMARK    9  A    between atoms: _21  and  _23
REMARK   10  A    between atoms: _23  and  _24
REMARK   11  A    between atoms: _23  and  _26
REMARK   12  A    between atoms: _26  and  _27
REMARK   13  A    between atoms: _30  and  _32
REMARK   14  A    between atoms: _32  and  _33
REMARK   15  A    between atoms: _35  and  _37
REMARK   16  A    between atoms: _37  and  _38
REMARK   17  A    between atoms: _37  and  _40
REMARK   18  A    between atoms: _40  and  _41
REMARK   19  A    between atoms: _41  and  _42
REMARK   20  A    between atoms: _45  and  _47
REMARK   21  A    between atoms: _47  and  _48
REMARK   22  A    between atoms: _50  and  _52
REMARK   23  A    between atoms: _52  and  _53
REMARK   24  A    between atoms: _56  and  _58
REMARK   25  A    between atoms: _58  and  _59
REMARK   26  A    between atoms: _58  and  _61
REMARK   27  A    between atoms: _61  and  _62
REMARK   28  A    between atoms: _68  and  _70
REMARK   29  A    between atoms: _70  and  _71
REMARK   30  A    between atoms: _73  and  _75
REMARK   31  A    between atoms: _75  and  _76
REMARK   32  A    between atoms: _75  and  _78
REMARK   33  A    between atoms: _78  and  _79
REMARK   34  A    between atoms: _79  and  _80
REMARK   35  A    between atoms: _85  and  _87
REMARK   36  A    between atoms: _87  and  _88
REMARK   37  A    between atoms: _87  and  _90
REMARK   38  A    between atoms: _93  and  _95
REMARK   39  A    between atoms: _95  and  _96
REMARK   40  A    between atoms: _95  and  _98
REMARK   41  A    between atoms: _101  and  _103
REMARK   42  A    between atoms: _103  and  _104
REMARK   43  A    between atoms: _103  and  _106
REMARK   44  A    between atoms: _106  and  _107
REMARK   45  A    between atoms: _110  and  _112
REMARK   46  A    between atoms: _112  and  _113
REMARK   47  A    between atoms: _112  and  _115
REMARK   48  A    between atoms: _118  and  _120
REMARK   49  A    between atoms: _120  and  _121
REMARK   50  A    between atoms: _124  and  _126
REMARK   51  A    between atoms: _126  and  _127
REMARK   52  A    between atoms: _126  and  _129
REMARK   53  A    between atoms: _132  and  _134
REMARK   54  A    between atoms: _134  and  _135
REMARK   55  A    between atoms: _134  and  _137
REMARK   56  A    between atoms: _137  and  _138
REMARK   57  A    between atoms: _138  and  _139
REMARK   58  A    between atoms: _139  and  _140
REMARK   59  A    between atoms: _140  and  _141
REMARK   60  A    between atoms: _145  and  _147
REMARK   61  A    between atoms: _147  and  _148
REMARK   62  A    between atoms: _147  and  _150
REMARK   63  A    between atoms: _150  and  _151
REMARK   64  A    between atoms: _151  and  _152
REMARK   65  A    between atoms: _154  and  _156
REMARK   66  A    between atoms: _156  and  _157
REMARK   67  A    between atoms: _156  and  _159
REMARK   68  A    between atoms: _159  and  _160
REMARK   69  A    between atoms: _163  and  _165
REMARK   70  A    between atoms: _165  and  _166
REMARK   71  A    between atoms: _165  and  _168
REMARK   72  A    between atoms: _168  and  _169
REMARK   73  A    between atoms: _172  and  _174
REMARK   74  A    between atoms: _174  and  _175
REMARK   75  A    between atoms: _174  and  _177
REMARK   76  A    between atoms: _177  and  _178
REMARK   77  A    between atoms: _178  and  _179
REMARK   78  A    between atoms: _182  and  _184
REMARK   79  A    between atoms: _184  and  _185
REMARK   80  A    between atoms: _184  and  _187
REMARK   81  A    between atoms: _187  and  _188
REMARK   82  A    between atoms: _188  and  _189
REMARK   83  A    between atoms: _191  and  _193
REMARK   84  A    between atoms: _193  and  _194
REMARK   85  A    between atoms: _193  and  _196
REMARK   86  A    between atoms: _196  and  _197
REMARK   87  A    between atoms: _197  and  _198
REMARK   88  A    between atoms: _200  and  _202
REMARK   89  A    between atoms: _202  and  _203
REMARK   90  A    between atoms: _202  and  _205
REMARK   91  A    between atoms: _205  and  _206
REMARK   92  A    between atoms: _209  and  _211
REMARK   93  A    between atoms: _211  and  _212
REMARK   94  A    between atoms: _211  and  _214
REMARK   95  A    between atoms: _214  and  _215
REMARK   96  A    between atoms: _218  and  _220
REMARK   97  A    between atoms: _220  and  _221
REMARK   98  A    between atoms: _220  and  _223
REMARK   99  A    between atoms: _223  and  _224
REMARK  100  A    between atoms: _229  and  _231
REMARK  101  A    between atoms: _231  and  _232
REMARK  102  A    between atoms: _231  and  _234
REMARK  103  A    between atoms: _234  and  _235
REMARK  104  A    between atoms: _238  and  _240
REMARK  105  A    between atoms: _240  and  _241
REMARK  106  A    between atoms: _240  and  _243
REMARK  107  A    between atoms: _243  and  _244
REMARK  108  A    between atoms: _247  and  _249
REMARK  109  A    between atoms: _249  and  _250
REMARK  110  A    between atoms: _252  and  _254
REMARK  111  A    between atoms: _254  and  _255
REMARK  112  A    between atoms: _254  and  _257
REMARK  113  A    between atoms: _257  and  _258
REMARK  114  A    between atoms: _263  and  _264
REMARK  115  A    between atoms: _266  and  _268
REMARK  116  A    between atoms: _268  and  _269
REMARK  117  A    between atoms: _268  and  _271
REMARK  118  A    between atoms: _274  and  _276
REMARK  119  A    between atoms: _276  and  _277
REMARK  120  A    between atoms: _276  and  _279
REMARK  121  A    between atoms: _279  and  _280
REMARK  122  A    between atoms: _283  and  _285
REMARK  123  A    between atoms: _285  and  _286
REMARK  124  A    between atoms: _285  and  _288
REMARK  125  A    between atoms: _291  and  _293
REMARK  126  A    between atoms: _293  and  _294
REMARK  127  A    between atoms: _293  and  _296
REMARK  128  A    between atoms: _296  and  _297
REMARK  129  A    between atoms: _297  and  _298
REMARK  130  A    between atoms: _301  and  _303
REMARK  131  A    between atoms: _303  and  _304
REMARK  132  A    between atoms: _303  and  _306
REMARK  133  A    between atoms: _306  and  _307
REMARK  134  A    between atoms: _312  and  _313
REMARK  135  A    between atoms: _315  and  _317
REMARK  136  A    between atoms: _317  and  _318
REMARK  137  A    between atoms: _321  and  _323
REMARK  138  A    between atoms: _323  and  _324
REMARK  139  A    between atoms: _323  and  _326
REMARK  140  A    between atoms: _326  and  _327
REMARK  141  A    between atoms: _329  and  _331
REMARK  142  A    between atoms: _331  and  _332
REMARK  143  A    between atoms: _331  and  _334
REMARK  144  A    between atoms: _334  and  _335
REMARK  145  A    between atoms: _335  and  _336
REMARK  146  A    between atoms: _336  and  _337
REMARK  147  A    between atoms: _337  and  _338
REMARK  148  A    between atoms: _342  and  _344
REMARK  149  A    between atoms: _344  and  _345
REMARK  150  A    between atoms: _347  and  _349
REMARK  151  A    between atoms: _349  and  _350
REMARK  152  A    between atoms: _349  and  _352
REMARK  153  A    between atoms: _352  and  _353
REMARK  154  A    between atoms: _358  and  _360
REMARK  155  A    between atoms: _360  and  _361
REMARK  156  A    between atoms: _360  and  _363
REMARK  157  A    between atoms: _363  and  _364
REMARK  158  A    between atoms: _364  and  _365
REMARK  159  A    between atoms: _368  and  _370
REMARK  160  A    between atoms: _370  and  _371
REMARK  161  A    between atoms: _370  and  _373
REMARK  162  A    between atoms: _373  and  _374
REMARK  163  A    between atoms: _379  and  _380
REMARK  164  A    between atoms: _382  and  _384
REMARK  165  A    between atoms: _384  and  _385
REMARK  166  A    between atoms: _388  and  _390
REMARK  167  A    between atoms: _390  and  _391
REMARK  168  A    between atoms: _390  and  _393
REMARK  169  A    between atoms: _393  and  _394
REMARK  170  A    between atoms: _394  and  _395
REMARK  171  A    between atoms: _395  and  _396
REMARK  172  A    between atoms: _405  and  _407
REMARK  173  A    between atoms: _407  and  _408
REMARK  174  A    between atoms: _407  and  _410
REMARK  175  A    between atoms: _410  and  _411
REMARK  176  A    between atoms: _413  and  _415
REMARK  177  A    between atoms: _415  and  _416
REMARK  178  A    between atoms: _415  and  _418
REMARK  179  A    between atoms: _418  and  _419
REMARK  180  A    between atoms: _424  and  _426
REMARK  181  A    between atoms: _426  and  _427
REMARK  182  A    between atoms: _426  and  _429
REMARK  183  A    between atoms: _429  and  _430
REMARK  184  A    between atoms: _435  and  _437
REMARK  185  A    between atoms: _437  and  _438
REMARK  186  A    between atoms: _437  and  _440
REMARK  187  A    between atoms: _440  and  _441
REMARK  188  A    between atoms: _441  and  _442
REMARK  189  A    between atoms: _445  and  _447
REMARK  190  A    between atoms: _447  and  _448
REMARK  191  A    between atoms: _447  and  _450
REMARK  192  A    between atoms: _450  and  _451
REMARK  193  A    between atoms: _456  and  _458
REMARK  194  A    between atoms: _458  and  _459
REMARK  195  A    between atoms: _458  and  _461
REMARK  196  A    between atoms: _461  and  _462
REMARK  197  A    between atoms: _462  and  _463
REMARK  198  A    between atoms: _463  and  _464
REMARK  199  A    between atoms: _473  and  _475
REMARK  200  A    between atoms: _475  and  _476
REMARK  201  A    between atoms: _475  and  _478
REMARK  202  A    between atoms: _478  and  _479
REMARK  203  A    between atoms: _484  and  _486
REMARK  204  A    between atoms: _486  and  _487
REMARK  205  A    between atoms: _486  and  _489
REMARK  206  A    between atoms: _489  and  _490
REMARK  207  A    between atoms: _493  and  _495
REMARK  208  A    between atoms: _495  and  _496
REMARK  209  A    between atoms: _495  and  _498
REMARK  210  A    between atoms: _501  and  _503
REMARK  211  A    between atoms: _503  and  _504
REMARK  212  A    between atoms: _503  and  _506
REMARK  213  A    between atoms: _506  and  _507
REMARK  214  A    between atoms: _510  and  _512
REMARK  215  A    between atoms: _512  and  _513
REMARK  216  A    between atoms: _512  and  _515
REMARK  217  A    between atoms: _515  and  _516
REMARK  218  A    between atoms: _516  and  _517
REMARK  219  A    between atoms: _520  and  _522
REMARK  220  A    between atoms: _522  and  _523
REMARK  221  A    between atoms: _522  and  _525
REMARK  222  A    between atoms: _525  and  _526
REMARK  223  A    between atoms: _526  and  _527
REMARK  224  A    between atoms: _527  and  _528
REMARK  225  A    between atoms: _528  and  _529
REMARK  226  A    between atoms: _533  and  _535
REMARK  227  A    between atoms: _535  and  _536
REMARK  228  A    between atoms: _535  and  _538
REMARK  229  A    between atoms: _538  and  _539
REMARK  230  A    between atoms: _542  and  _544
REMARK  231  A    between atoms: _544  and  _545
REMARK  232  A    between atoms: _548  and  _550
REMARK  233  A    between atoms: _550  and  _551
REMARK  234  A    between atoms: _550  and  _553
REMARK  235  A    between atoms: _553  and  _554
REMARK  236  A    between atoms: _557  and  _559
REMARK  237  A    between atoms: _559  and  _560
REMARK  238  A    between atoms: _559  and  _562
REMARK  239  A    between atoms: _562  and  _563
REMARK  240  A    between atoms: _569  and  _571
REMARK  241  A    between atoms: _571  and  _572
REMARK  242  A    between atoms: _574  and  _576
REMARK  243  A    between atoms: _576  and  _577
REMARK  244  A    between atoms: _576  and  _579
REMARK  245  A    between atoms: _579  and  _580
REMARK                            x       y       z     vdW  Elec       q    Type
REMARK                         _______ _______ _______ _____ _____    ______ ____
ROOT
ATOM      1  C   GLU A   1      -4.500  -7.931   6.598  0.00  0.00    +0.238 C 
ATOM      2  N   MET A   2      -3.827  -8.371   7.658  0.00  0.00    -0.298 N 
ATOM      3  H   MET A   2      -3.681  -9.394   7.774  0.00  0.00    +0.150 HD
ATOM      4  O   GLU A   1      -4.704  -6.736   6.382  0.00  0.00    -0.274 OA
ENDROOT
BRANCH   1   5
ATOM      5  CA  GLU A   1      -4.993  -8.998   5.621  0.00  0.00    +0.145 C 
BRANCH   5   6
ATOM      6  N   GLU A   1      -3.926  -9.944   5.341  0.00  0.00    -0.238 NA
ATOM      7  H   GLU A   1      -4.063 -10.946   5.583  0.00  0.00    +0.142 HD
ENDBRANCH   5   6
BRANCH   5   8
ATOM      8  CB  GLU A   1      -6.215  -9.736   6.175  0.00  0.00    +0.038 C 
BRANCH   8   9
ATOM      9  CG  GLU A   1      -7.435  -8.872   6.421  0.00  0.00    +0.116 C 
BRANCH   9  10
ATOM     10  CD  GLU A   1      -8.650  -9.696   6.819  0.00  0.00    +0.365 C 
ATOM     11  OE2 GLU A   1      -9.725  -9.102   7.058  0.00  0.00    -0.246 OA
ATOM     12  OE1 GLU A   1      -8.529 -10.939   6.889  0.00  0.00    -0.246 OA
ENDBRANCH   9  10
ENDBRANCH   8   9
ENDBRANCH   5   8
ENDBRANCH   1   5
BRANCH   2  13
ATOM     13  CA  MET A   2      -3.288  -7.461   8.663  0.00  0.00    +0.138 C 
BRANCH  13  14
ATOM     14  C   MET A   2      -2.228  -6.523   8.093  0.00  0.00    +0.227 C 
ATOM     15  O   MET A   2      -2.250  -5.318   8.349  0.00  0.00    -0.286 OA
ENDBRANCH  13  14
BRANCH  13  16
ATOM     16  CB  MET A   2      -2.695  -8.252   9.827  0.00  0.00    +0.039 C 
BRANCH  16  17
ATOM     17  CG  MET A   2      -2.028  -7.388  10.879  0.00  0.00    +0.060 C 
BRANCH  17  18
ATOM     18  SD  MET A   2      -1.211  -8.368  12.149  0.00  0.00    -0.139 S 
ATOM     19  CE  MET A   2       0.011  -9.246  11.180  0.00  0.00    +0.069 C 
ENDBRANCH  17  18
ENDBRANCH  16  17
ENDBRANCH  13  16
ENDBRANCH   2  13
TORSDOF 10
REMARK  Name = ../refined-set-2016/4rwj/4rwj_pocket.pdb
REMARK  245 active torsions:
REMARK  status: ('A' for Active; 'I' for Inactive)
REMARK    1  A    between atoms: _1  and  _3
REMARK    2  A    between atoms: _3  and  _4
REMARK    3  A    between atoms: _3  and  _6
REMARK    4  A    between atoms: _6  and  _7
REMARK    5  A    between atoms: _7  and  _8
REMARK    6  A    between atoms: _8  and  _9
REMARK    7  A    between atoms: _9  and  _10
REMARK    8  A    between atoms: _15  and  _16
REMARK    9  A    between atoms: _21  and  _23
REMARK   10  A    between atoms: _23  and  _24
REMARK   11  A    between atoms: _23  and  _26
REMARK   12  A    between atoms: _26  and  _27
REMARK   13  A    between atoms: _30  and  _32
REMARK   14  A    between atoms: _32  and  _33
REMARK   15  A    between atoms: _35  and  _37
REMARK   16  A    between atoms: _37  and  _38
REMARK   17  A    between atoms: _37  and  _40
REMARK   18  A    between atoms: _40  and  _41
REMARK   19  A    between atoms: _41  and  _42
REMARK   20  A    between atoms: _45  and  _47
REMARK   21  A    between atoms: _47  and  _48
REMARK   22  A    between atoms: _50  and  _52
REMARK   23  A    between atoms: _52  and  _53
REMARK   24  A    between atoms: _56  and  _58
REMARK   25  A    between atoms: _58  and  _59
REMARK   26  A    between atoms: _58  and  _61
REMARK   27  A    between atoms: _61  and  _62
REMARK   28  A    between atoms: _68  and  _70
REMARK   29  A    between atoms: _70  and  _71
REMARK   30  A    between atoms: _73  and  _75
REMARK   31  A    between atoms: _75  and  _76
REMARK   32  A    between atoms: _75  and  _78
REMARK   33  A    between atoms: _78  and  _79
REMARK   34  A    between atoms: _79  and  _80
REMARK   35  A    between atoms: _85  and  _87
REMARK   36  A    between atoms: _87  and  _88
REMARK   37  A    between atoms: _87  and  _90
REMARK   38  A    between atoms: _93  and  _95
REMARK   39  A    between atoms: _95  and  _96
REMARK   40  A    between atoms: _95  and  _98
REMARK   41  A    between atoms: _101  and  _103
REMARK   42  A    between atoms: _103  and  _104
REMARK   43  A    between atoms: _103  and  _106
REMARK   44  A    between atoms: _106  and  _107
REMARK   45  A    between atoms: _110  and  _112
REMARK   46  A    between atoms: _112  and  _113
REMARK   47  A    between atoms: _112  and  _115
REMARK   48  A    between atoms: _118  and  _120
REMARK   49  A    between atoms: _120  and  _121
REMARK   50  A    between atoms: _124  and  _126
REMARK   51  A    between atoms: _126  and  _127
REMARK   52  A    between atoms: _126  and  _129
REMARK   53  A    between atoms: _132  and  _134
REMARK   54  A    between atoms: _134  and  _135
REMARK   55  A    between atoms: _134  and  _137
REMARK   56  A    between atoms: _137  and  _138
REMARK   57  A    between atoms: _138  and  _139
REMARK   58  A    between atoms: _139  and  _140
REMARK   59  A    between atoms: _140  and  _141
REMARK   60  A    between atoms: _145  and  _147
REMARK   61  A    between atoms: _147  and  _148
REMARK   62  A    between atoms: _147  and  _150
REMARK   63  A    between atoms: _150  and  _151
REMARK   64  A    between atoms: _151  and  _152
REMARK   65  A    between atoms: _154  and  _156
REMARK   66  A    between atoms: _156  and  _157
REMARK   67  A    between atoms: _156  and  _159
REMARK   68  A    between atoms: _159  and  _160
REMARK   69  A    between atoms: _163  and  _165
REMARK   70  A    between atoms: _165  and  _166
REMARK   71  A    between atoms: _165  and  _168
REMARK   72  A    between atoms: _168  and  _169
REMARK   73  A    between atoms: _172  and  _174
REMARK   74  A    between atoms: _174  and  _175
REMARK   75  A    between atoms: _174  and  _177
REMARK   76  A    between atoms: _177  and  _178
REMARK   77  A    between atoms: _178  and  _179
REMARK   78  A    between atoms: _182  and  _184
REMARK   79  A    between atoms: _184  and  _185
REMARK   80  A    between atoms: _184  and  _187
REMARK   81  A    between atoms: _187  and  _188
REMARK   82  A    between atoms: _188  and  _189
REMARK   83  A    between atoms: _191  and  _193
REMARK   84  A    between atoms: _193  and  _194
REMARK   85  A    between atoms: _193  and  _196
REMARK   86  A    between atoms: _196  and  _197
REMARK   87  A    between atoms: _197  and  _198
REMARK   88  A    between atoms: _200  and  _202
REMARK   89  A    between atoms: _202  and  _203
REMARK   90  A    between atoms: _202  and  _205
REMARK   91  A    between atoms: _205  and  _206
REMARK   92  A    between atoms: _209  and  _211
REMARK   93  A    between atoms: _211  and  _212
REMARK   94  A    between atoms: _211  and  _214
REMARK   95  A    between atoms: _214  and  _215
REMARK   96  A    between atoms: _218  and  _220
REMARK   97  A    between atoms: _220  and  _221
REMARK   98  A    between atoms: _220  and  _223
REMARK   99  A    between atoms: _223  and  _224
REMARK  100  A    between atoms: _229  and  _231
REMARK  101  A    between atoms: _231  and  _232
REMARK  102  A    between atoms: _231  and  _234
REMARK  103  A    between atoms: _234  and  _235
REMARK  104  A    between atoms: _238  and  _240
REMARK  105  A    between atoms: _240  and  _241
REMARK  106  A    between atoms: _240  and  _243
REMARK  107  A    between atoms: _243  and  _244
REMARK  108  A    between atoms: _247  and  _249
REMARK  109  A    between atoms: _249  and  _250
REMARK  110  A    between atoms: _252  and  _254
REMARK  111  A    between atoms: _254  and  _255
REMARK  112  A    between atoms: _254  and  _257
REMARK  113  A    between atoms: _257  and  _258
REMARK  114  A    between atoms: _263  and  _264
REMARK  115  A    between atoms: _266  and  _268
REMARK  116  A    between atoms: _268  and  _269
REMARK  117  A    between atoms: _268  and  _271
REMARK  118  A    between atoms: _274  and  _276
REMARK  119  A    between atoms: _276  and  _277
REMARK  120  A    between atoms: _276  and  _279
REMARK  121  A    between atoms: _279  and  _280
REMARK  122  A    between atoms: _283  and  _285
REMARK  123  A    between atoms: _285  and  _286
REMARK  124  A    between atoms: _285  and  _288
REMARK  125  A    between atoms: _291  and  _293
REMARK  126  A    between atoms: _293  and  _294
REMARK  127  A    between atoms: _293  and  _296
REMARK  128  A    between atoms: _296  and  _297
REMARK  129  A    between atoms: _297  and  _298
REMARK  130  A    between atoms: _301  and  _303
REMARK  131  A    between atoms: _303  and  _304
REMARK  132  A    between atoms: _303  and  _306
REMARK  133  A    between atoms: _306  and  _307
REMARK  134  A    between atoms: _312  and  _313
REMARK  135  A    between atoms: _315  and  _317
REMARK  136  A    between atoms: _317  and  _318
REMARK  137  A    between atoms: _321  and  _323
REMARK  138  A    between atoms: _323  and  _324
REMARK  139  A    between atoms: _323  and  _326
REMARK  140  A    between atoms: _326  and  _327
REMARK  141  A    between atoms: _329  and  _331
REMARK  142  A    between atoms: _331  and  _332
REMARK  143  A    between atoms: _331  and  _334
REMARK  144  A    between atoms: _334  and  _335
REMARK  145  A    between atoms: _335  and  _336
REMARK  146  A    between atoms: _336  and  _337
REMARK  147  A    between atoms: _337  and  _338
REMARK  148  A    between atoms: _342  and  _344
REMARK  149  A    between atoms: _344  and  _345
REMARK  150  A    between atoms: _347  and  _349
REMARK  151  A    between atoms: _349  and  _350
REMARK  152  A    between atoms: _349  and  _352
REMARK  153  A    between atoms: _352  and  _353
REMARK  154  A    between atoms: _358  and  _360
REMARK  155  A    between atoms: _360  and  _361
REMARK  156  A    between atoms: _360  and  _363
REMARK  157  A    between atoms: _363  and  _364
REMARK  158  A    between atoms: _364  and  _365
REMARK  159  A    between atoms: _368  and  _370
REMARK  160  A    between atoms: _370  and  _371
REMARK  161  A    between atoms: _370  and  _373
REMARK  162  A    between atoms: _373  and  _374
REMARK  163  A    between atoms: _379  and  _380
REMARK  164  A    between atoms: _382  and  _384
REMARK  165  A    between atoms: _384  and  _385
REMARK  166  A    between atoms: _388  and  _390
REMARK  167  A    between atoms: _390  and  _391
REMARK  168  A    between atoms: _390  and  _393
REMARK  169  A    between atoms: _393  and  _394
REMARK  170  A    between atoms: _394  and  _395
REMARK  171  A    between atoms: _395  and  _396
REMARK  172  A    between atoms: _405  and  _407
REMARK  173  A    between atoms: _407  and  _408
REMARK  174  A    between atoms: _407  and  _410
REMARK  175  A    between atoms: _410  and  _411
REMARK  176  A    between atoms: _413  and  _415
REMARK  177  A    between atoms: _415  and  _416
REMARK  178  A    between atoms: _415  and  _418
REMARK  179  A    between atoms: _418  and  _419
REMARK  180  A    between atoms: _424  and  _426
REMARK  181  A    between atoms: _426  and  _427
REMARK  182  A    between atoms: _426  and  _429
REMARK  183  A    between atoms: _429  and  _430
REMARK  184  A    between atoms: _435  and  _437
REMARK  185  A    between atoms: _437  and  _438
REMARK  186  A    between atoms: _437  and  _440
REMARK  187  A    between atoms: _440  and  _441
REMARK  188  A    between atoms: _441  and  _442
REMARK  189  A    between atoms: _445  and  _447
REMARK  190  A    between atoms: _447  and  _448
REMARK  191  A    between atoms: _447  and  _450
REMARK  192  A    between atoms: _450  and  _451
REMARK  193  A    between atoms: _456  and  _458
REMARK  194  A    between atoms: _458  and  _459
REMARK  195  A    between atoms: _458  and  _461
REMARK  196  A    between atoms: _461  and  _462
REMARK  197  A    between atoms: _462  and  _463
REMARK  198  A    between atoms: _463  and  _464
REMARK  199  A    between atoms: _473  and  _475
REMARK  200  A    between atoms: _475  and  _476
REMARK  201  A    between atoms: _475  and  _478
REMARK  202  A    between atoms: _478  and  _479
REMARK  203  A    between atoms: _484  and  _486
REMARK  204  A    between atoms: _486  and  _487
REMARK  205  A    between atoms: _486  and  _489
REMARK  206  A    between atoms: _489  and  _490
REMARK  207  A    between atoms: _493  and  _495
REMARK  208  A    between atoms: _495  and  _496
REMARK  209  A    between atoms: _495  and  _498
REMARK  210  A    between atoms: _501  and  _503
REMARK  211  A    between atoms: _503  and  _504
REMARK  212  A    between atoms: _503  and  _506
REMARK  213  A    between atoms: _506  and  _507
REMARK  214  A    between atoms: _510  and  _512
REMARK  215  A    between atoms: _512  and  _513
REMARK  216  A    between atoms: _512  and  _515
REMARK  217  A    between atoms: _515  and  _516
REMARK  218  A    between atoms: _516  and  _517
REMARK  219  A    between atoms: _520  and  _522
REMARK  220  A    between atoms: _522  and  _523
REMARK  221  A    between atoms: _522  and  _525
REMARK  222  A    between atoms: _525  and  _526
REMARK  223  A    between atoms: _526  and  _527
REMARK  224  A    between atoms: _527  and  _528
REMARK  225  A    between atoms: _528  and  _529
REMARK  226  A    between atoms: _533  and  _535
REMARK  227  A    between atoms: _535  and  _536
REMARK  228  A    between atoms: _535  and  _538
REMARK  229  A    between atoms: _538  and  _539
REMARK  230  A    between atoms: _542  and  _544
REMARK  231  A    between atoms: _544  and  _545
REMARK  232  A    between atoms: _548  and  _550
REMARK  233  A    between atoms: _550  and  _551
REMARK  234  A    between atoms: _550  and  _553
REMARK  235  A    between atoms: _553  and  _554
REMARK  236  A    between atoms: _557  and  _559
REMARK  237  A    between atoms: _559  and  _560
REMARK  238  A    between atoms: _559  and  _562
REMARK  239  A    between atoms: _562  and  _563
REMARK  240  A    between atoms: _569  and  _571
REMARK  241  A    between atoms: _571  and  _572
REMARK  242  A    between atoms: _574  and  _576
REMARK  243  A    between atoms: _576  and  _577
REMARK  244  A    between atoms: _576  and  _579
REMARK  245  A    between atoms: _579  and  _580
REMARK                            x       y       z     vdW  Elec       q    Type
REMARK                         _______ _______ _______ _____ _____    ______ ____
ROOT
ATOM      1  CA  MET A   1      -4.362  -2.838   6.591  0.00  0.00    +0.134 C 
ENDROOT
BRANCH   1   2
ATOM      2  N   MET A   1      -3.712  -3.911   5.851  0.00  0.00    -0.239 NA
ATOM      3  H   MET A   1      -3.714  -4.876   6.240  0.00  0.00    +0.142 HD
ENDBRANCH   1   2
BRANCH   1   4
ATOM      4  C   MET A   1      -3.332  -1.834   7.106  0.00  0.00    +0.224 C 
ATOM      5  O   MET A   1      -3.610  -0.637   7.174  0.00  0.00    -0.287 OA
ENDBRANCH   1   4
BRANCH   1   6
ATOM      6  CB  MET A   1      -5.200  -3.413   7.739  0.00  0.00    +0.037 C 
BRANCH   6   7
ATOM      7  CG  MET A   1      -6.388  -4.247   7.254  0.00  0.00    +0.059 C 
BRANCH   7   8
ATOM      8  SD  MET A   1      -7.394  -4.992   8.556  0.00  0.00    -0.139 S 
ATOM      9  CE  MET A   1      -8.189  -3.547   9.250  0.00  0.00    +0.069 C 
ENDBRANCH   7   8
ENDBRANCH   6   7
ENDBRANCH   1   6
TORSDOF 5
REMARK  Name = ../refined-set-2016/4rwj/4rwj_pocket.pdb
REMARK  245 active torsions:
REMARK  status: ('A' for Active; 'I' for Inactive)
REMARK    1  A    between atoms: _1  and  _3
REMARK    2  A    between atoms: _3  and  _4
REMARK    3  A    between atoms: _3  and  _6
REMARK    4  A    between atoms: _6  and  _7
REMARK    5  A    between atoms: _7  and  _8
REMARK    6  A    between atoms: _8  and  _9
REMARK    7  A    between atoms: _9  and  _10
REMARK    8  A    between atoms: _15  and  _16
REMARK    9  A    between atoms: _21  and  _23
REMARK   10  A    between atoms: _23  and  _24
REMARK   11  A    between atoms: _23  and  _26
REMARK   12  A    between atoms: _26  and  _27
REMARK   13  A    between atoms: _30  and  _32
REMARK   14  A    between atoms: _32  and  _33
REMARK   15  A    between atoms: _35  and  _37
REMARK   16  A    between atoms: _37  and  _38
REMARK   17  A    between atoms: _37  and  _40
REMARK   18  A    between atoms: _40  and  _41
REMARK   19  A    between atoms: _41  and  _42
REMARK   20  A    between atoms: _45  and  _47
REMARK   21  A    between atoms: _47  and  _48
REMARK   22  A    between atoms: _50  and  _52
REMARK   23  A    between atoms: _52  and  _53
REMARK   24  A    between atoms: _56  and  _58
REMARK   25  A    between atoms: _58  and  _59
REMARK   26  A    between atoms: _58  and  _61
REMARK   27  A    between atoms: _61  and  _62
REMARK   28  A    between atoms: _68  and  _70
REMARK   29  A    between atoms: _70  and  _71
REMARK   30  A    between atoms: _73  and  _75
REMARK   31  A    between atoms: _75  and  _76
REMARK   32  A    between atoms: _75  and  _78
REMARK   33  A    between atoms: _78  and  _79
REMARK   34  A    between atoms: _79  and  _80
REMARK   35  A    between atoms: _85  and  _87
REMARK   36  A    between atoms: _87  and  _88
REMARK   37  A    between atoms: _87  and  _90
REMARK   38  A    between atoms: _93  and  _95
REMARK   39  A    between atoms: _95  and  _96
REMARK   40  A    between atoms: _95  and  _98
REMARK   41  A    between atoms: _101  and  _103
REMARK   42  A    between atoms: _103  and  _104
REMARK   43  A    between atoms: _103  and  _106
REMARK   44  A    between atoms: _106  and  _107
REMARK   45  A    between atoms: _110  and  _112
REMARK   46  A    between atoms: _112  and  _113
REMARK   47  A    between atoms: _112  and  _115
REMARK   48  A    between atoms: _118  and  _120
REMARK   49  A    between atoms: _120  and  _121
REMARK   50  A    between atoms: _124  and  _126
REMARK   51  A    between atoms: _126  and  _127
REMARK   52  A    between atoms: _126  and  _129
REMARK   53  A    between atoms: _132  and  _134
REMARK   54  A    between atoms: _134  and  _135
REMARK   55  A    between atoms: _134  and  _137
REMARK   56  A    between atoms: _137  and  _138
REMARK   57  A    between atoms: _138  and  _139
REMARK   58  A    between atoms: _139  and  _140
REMARK   59  A    between atoms: _140  and  _141
REMARK   60  A    between atoms: _145  and  _147
REMARK   61  A    between atoms: _147  and  _148
REMARK   62  A    between atoms: _147  and  _150
REMARK   63  A    between atoms: _150  and  _151
REMARK   64  A    between atoms: _151  and  _152
REMARK   65  A    between atoms: _154  and  _156
REMARK   66  A    between atoms: _156  and  _157
REMARK   67  A    between atoms: _156  and  _159
REMARK   68  A    between atoms: _159  and  _160
REMARK   69  A    between atoms: _163  and  _165
REMARK   70  A    between atoms: _165  and  _166
REMARK   71  A    between atoms: _165  and  _168
REMARK   72  A    between atoms: _168  and  _169
REMARK   73  A    between atoms: _172  and  _174
REMARK   74  A    between atoms: _174  and  _175
REMARK   75  A    between atoms: _174  and  _177
REMARK   76  A    between atoms: _177  and  _178
REMARK   77  A    between atoms: _178  and  _179
REMARK   78  A    between atoms: _182  and  _184
REMARK   79  A    between atoms: _184  and  _185
REMARK   80  A    between atoms: _184  and  _187
REMARK   81  A    between atoms: _187  and  _188
REMARK   82  A    between atoms: _188  and  _189
REMARK   83  A    between atoms: _191  and  _193
REMARK   84  A    between atoms: _193  and  _194
REMARK   85  A    between atoms: _193  and  _196
REMARK   86  A    between atoms: _196  and  _197
REMARK   87  A    between atoms: _197  and  _198
REMARK   88  A    between atoms: _200  and  _202
REMARK   89  A    between atoms: _202  and  _203
REMARK   90  A    between atoms: _202  and  _205
REMARK   91  A    between atoms: _205  and  _206
REMARK   92  A    between atoms: _209  and  _211
REMARK   93  A    between atoms: _211  and  _212
REMARK   94  A    between atoms: _211  and  _214
REMARK   95  A    between atoms: _214  and  _215
REMARK   96  A    between atoms: _218  and  _220
REMARK   97  A    between atoms: _220  and  _221
REMARK   98  A    between atoms: _220  and  _223
REMARK   99  A    between atoms: _223  and  _224
REMARK  100  A    between atoms: _229  and  _231
REMARK  101  A    between atoms: _231  and  _232
REMARK  102  A    between atoms: _231  and  _234
REMARK  103  A    between atoms: _234  and  _235
REMARK  104  A    between atoms: _238  and  _240
REMARK  105  A    between atoms: _240  and  _241
REMARK  106  A    between atoms: _240  and  _243
REMARK  107  A    between atoms: _243  and  _244
REMARK  108  A    between atoms: _247  and  _249
REMARK  109  A    between atoms: _249  and  _250
REMARK  110  A    between atoms: _252  and  _254
REMARK  111  A    between atoms: _254  and  _255
REMARK  112  A    between atoms: _254  and  _257
REMARK  113  A    between atoms: _257  and  _258
REMARK  114  A    between atoms: _263  and  _264
REMARK  115  A    between atoms: _266  and  _268
REMARK  116  A    between atoms: _268  and  _269
REMARK  117  A    between atoms: _268  and  _271
REMARK  118  A    between atoms: _274  and  _276
REMARK  119  A    between atoms: _276  and  _277
REMARK  120  A    between atoms: _276  and  _279
REMARK  121  A    between atoms: _279  and  _280
REMARK  122  A    between atoms: _283  and  _285
REMARK  123  A    between atoms: _285  and  _286
REMARK  124  A    between atoms: _285  and  _288
REMARK  125  A    between atoms: _291  and  _293
REMARK  126  A    between atoms: _293  and  _294
REMARK  127  A    between atoms: _293  and  _296
REMARK  128  A    between atoms: _296  and  _297
REMARK  129  A    between atoms: _297  and  _298
REMARK  130  A    between atoms: _301  and  _303
REMARK  131  A    between atoms: _303  and  _304
REMARK  132  A    between atoms: _303  and  _306
REMARK  133  A    between atoms: _306  and  _307
REMARK  134  A    between atoms: _312  and  _313
REMARK  135  A    between atoms: _315  and  _317
REMARK  136  A    between atoms: _317  and  _318
REMARK  137  A    between atoms: _321  and  _323
REMARK  138  A    between atoms: _323  and  _324
REMARK  139  A    between atoms: _323  and  _326
REMARK  140  A    between atoms: _326  and  _327
REMARK  141  A    between atoms: _329  and  _331
REMARK  142  A    between atoms: _331  and  _332
REMARK  143  A    between atoms: _331  and  _334
REMARK  144  A    between atoms: _334  and  _335
REMARK  145  A    between atoms: _335  and  _336
REMARK  146  A    between atoms: _336  and  _337
REMARK  147  A    between atoms: _337  and  _338
REMARK  148  A    between atoms: _342  and  _344
REMARK  149  A    between atoms: _344  and  _345
REMARK  150  A    between atoms: _347  and  _349
REMARK  151  A    between atoms: _349  and  _350
REMARK  152  A    between atoms: _349  and  _352
REMARK  153  A    between atoms: _352  and  _353
REMARK  154  A    between atoms: _358  and  _360
REMARK  155  A    between atoms: _360  and  _361
REMARK  156  A    between atoms: _360  and  _363
REMARK  157  A    between atoms: _363  and  _364
REMARK  158  A    between atoms: _364  and  _365
REMARK  159  A    between atoms: _368  and  _370
REMARK  160  A    between atoms: _370  and  _371
REMARK  161  A    between atoms: _370  and  _373
REMARK  162  A    between atoms: _373  and  _374
REMARK  163  A    between atoms: _379  and  _380
REMARK  164  A    between atoms: _382  and  _384
REMARK  165  A    between atoms: _384  and  _385
REMARK  166  A    between atoms: _388  and  _390
REMARK  167  A    between atoms: _390  and  _391
REMARK  168  A    between atoms: _390  and  _393
REMARK  169  A    between atoms: _393  and  _394
REMARK  170  A    between atoms: _394  and  _395
REMARK  171  A    between atoms: _395  and  _396
REMARK  172  A    between atoms: _405  and  _407
REMARK  173  A    between atoms: _407  and  _408
REMARK  174  A    between atoms: _407  and  _410
REMARK  175  A    between atoms: _410  and  _411
REMARK  176  A    between atoms: _413  and  _415
REMARK  177  A    between atoms: _415  and  _416
REMARK  178  A    between atoms: _415  and  _418
REMARK  179  A    between atoms: _418  and  _419
REMARK  180  A    between atoms: _424  and  _426
REMARK  181  A    between atoms: _426  and  _427
REMARK  182  A    between atoms: _426  and  _429
REMARK  183  A    between atoms: _429  and  _430
REMARK  184  A    between atoms: _435  and  _437
REMARK  185  A    between atoms: _437  and  _438
REMARK  186  A    between atoms: _437  and  _440
REMARK  187  A    between atoms: _440  and  _441
REMARK  188  A    between atoms: _441  and  _442
REMARK  189  A    between atoms: _445  and  _447
REMARK  190  A    between atoms: _447  and  _448
REMARK  191  A    between atoms: _447  and  _450
REMARK  192  A    between atoms: _450  and  _451
REMARK  193  A    between atoms: _456  and  _458
REMARK  194  A    between atoms: _458  and  _459
REMARK  195  A    between atoms: _458  and  _461
REMARK  196  A    between atoms: _461  and  _462
REMARK  197  A    between atoms: _462  and  _463
REMARK  198  A    between atoms: _463  and  _464
REMARK  199  A    between atoms: _473  and  _475
REMARK  200  A    between atoms: _475  and  _476
REMARK  201  A    between atoms: _475  and  _478
REMARK  202  A    between atoms: _478  and  _479
REMARK  203  A    between atoms: _484  and  _486
REMARK  204  A    between atoms: _486  and  _487
REMARK  205  A    between atoms: _486  and  _489
REMARK  206  A    between atoms: _489  and  _490
REMARK  207  A    between atoms: _493  and  _495
REMARK  208  A    between atoms: _495  and  _496
REMARK  209  A    between atoms: _495  and  _498
REMARK  210  A    between atoms: _501  and  _503
REMARK  211  A    between atoms: _503  and  _504
REMARK  212  A    between atoms: _503  and  _506
REMARK  213  A    between atoms: _506  and  _507
REMARK  214  A    between atoms: _510  and  _512
REMARK  215  A    between atoms: _512  and  _513
REMARK  216  A    between atoms: _512  and  _515
REMARK  217  A    between atoms: _515  and  _516
REMARK  218  A    between atoms: _516  and  _517
REMARK  219  A    between atoms: _520  and  _522
REMARK  220  A    between atoms: _522  and  _523
REMARK  221  A    between atoms: _522  and  _525
REMARK  222  A    between atoms: _525  and  _526
REMARK  223  A    between atoms: _526  and  _527
REMARK  224  A    between atoms: _527  and  _528
REMARK  225  A    between atoms: _528  and  _529
REMARK  226  A    between atoms: _533  and  _535
REMARK  227  A    between atoms: _535  and  _536
REMARK  228  A    between atoms: _535  and  _538
REMARK  229  A    between atoms: _538  and  _539
REMARK  230  A    between atoms: _542  and  _544
REMARK  231  A    between atoms: _544  and  _545
REMARK  232  A    between atoms: _548  and  _550
REMARK  233  A    between atoms: _550  and  _551
REMARK  234  A    between atoms: _550  and  _553
REMARK  235  A    between atoms: _553  and  _554
REMARK  236  A    between atoms: _557  and  _559
REMARK  237  A    between atoms: _559  and  _560
REMARK  238  A    between atoms: _559  and  _562
REMARK  239  A    between atoms: _562  and  _563
REMARK  240  A    between atoms: _569  and  _571
REMARK  241  A    between atoms: _571  and  _572
REMARK  242  A    between atoms: _574  and  _576
REMARK  243  A    between atoms: _576  and  _577
REMARK  244  A    between atoms: _576  and  _579
REMARK  245  A    between atoms: _579  and  _580
REMARK                            x       y       z     vdW  Elec       q    Type
REMARK                         _______ _______ _______ _____ _____    ______ ____
ROOT
ATOM      1  CA  ASN A   3      -9.215   0.191  11.046  0.00  0.00    +0.158 C 
ENDROOT
BRANCH   1   3
ATOM      2  C   ILE A   2     -11.162  -0.685   9.889  0.00  0.00    +0.241 C 
ATOM      3  N   ASN A   3     -10.656   0.014  10.899  0.00  0.00    -0.297 N 
ATOM      4  H   ASN A   3     -11.298   0.442  11.597  0.00  0.00    +0.150 HD
ATOM      5  O   ILE A   2     -10.460  -1.287   9.078  0.00  0.00    -0.273 OA
BRANCH   2   6
ATOM      6  CA  ILE A   2     -12.682  -0.698   9.760  0.00  0.00    +0.148 C 
BRANCH   6   9
ATOM      7  C   ILE A   1     -12.950   1.344   8.478  0.00  0.00    +0.238 C 
ATOM      8  O   ILE A   1     -12.698   2.042   9.461  0.00  0.00    -0.274 OA
ATOM      9  N   ILE A   2     -13.052   0.020   8.545  0.00  0.00    -0.297 N 
ATOM     10  H   ILE A   2     -13.400  -0.511   7.721  0.00  0.00    +0.150 HD
BRANCH   7  11
ATOM     11  CA  ILE A   1     -13.174   1.984   7.111  0.00  0.00    +0.145 C 
BRANCH  11  12
ATOM     12  N   ILE A   1     -13.540   3.387   7.288  0.00  0.00    -0.238 NA
ATOM     13  H   ILE A   1     -12.978   3.980   7.932  0.00  0.00    +0.142 HD
ENDBRANCH  11  12
BRANCH  11  14
ATOM     14  CB  ILE A   1     -11.900   1.808   6.243  0.00  0.00    +0.025 C 
ATOM     15  CG2 ILE A   1     -12.060   2.479   4.880  0.00  0.00    +0.002 C 
BRANCH  14  16
ATOM     16  CG1 ILE A   1     -10.665   2.345   6.969  0.00  0.00    +0.002 C 
ATOM     17  CD1 ILE A   1      -9.380   2.169   6.180  0.00  0.00    +0.000 C 
ENDBRANCH  14  16
ENDBRANCH  11  14
ENDBRANCH   7  11
ENDBRANCH   6   9
BRANCH   6  18
ATOM     18  CB  ILE A   2     -13.199  -2.148   9.755  0.00  0.00    +0.027 C 
ATOM     19  CG2 ILE A   2     -12.625  -2.923  10.929  0.00  0.00    +0.002 C 
BRANCH  18  20
ATOM     20  CG1 ILE A   2     -14.727  -2.169   9.810  0.00  0.00    +0.002 C 
ATOM     21  CD1 ILE A   2     -15.300  -1.659  11.119  0.00  0.00    +0.000 C 
ENDBRANCH  18  20
ENDBRANCH   6  18
ENDBRANCH   2   6
ENDBRANCH   1   3
BRANCH   1  22
ATOM     22  C   ASN A   3      -8.541  -0.841  11.935  0.00  0.00    +0.241 C 
ATOM     23  O   ASN A   3      -9.166  -1.432  12.813  0.00  0.00    -0.273 OA
ATOM     24  N   LEU A   4      -7.254  -1.046  11.685  0.00  0.00    -0.297 N 
ATOM     25  H   LEU A   4      -6.824  -0.581  10.860  0.00  0.00    +0.150 HD
BRANCH  24  26
ATOM     26  CA  LEU A   4      -6.423  -1.897  12.521  0.00  0.00    +0.149 C 
BRANCH  26  27
ATOM     27  C   LEU A   4      -6.067  -1.157  13.801  0.00  0.00    +0.241 C 
ATOM     28  N   LEU A   5      -6.164  -1.847  14.933  0.00  0.00    -0.297 N 
ATOM     29  H   LEU A   5      -6.450  -2.846  14.896  0.00  0.00    +0.150 HD
ATOM     30  O   LEU A   4      -5.721   0.023  13.764  0.00  0.00    -0.273 OA
BRANCH  28  31
ATOM     31  CA  LEU A   5      -5.878  -1.234  16.225  0.00  0.00    +0.149 C 
BRANCH  31  32
ATOM     32  C   LEU A   5      -4.678  -1.889  16.910  0.00  0.00    +0.241 C 
ATOM     33  O   LEU A   5      -4.004  -1.264  17.730  0.00  0.00    -0.273 OA
ATOM     34  N   GLY A   6      -4.413  -3.145  16.566  0.00  0.00    -0.296 N 
ATOM     35  H   GLY A   6      -5.006  -3.612  15.851  0.00  0.00    +0.150 HD
BRANCH  34  36
ATOM     36  CA  GLY A   6      -3.314  -3.879  17.166  0.00  0.00    +0.163 C 
BRANCH  36  37
ATOM     37  C   GLY A   6      -3.314  -5.354  16.809  0.00  0.00    +0.229 C 
ATOM     38  O   GLY A   6      -4.121  -5.804  15.995  0.00  0.00    -0.286 OA
ENDBRANCH  36  37
ENDBRANCH  34  36
ENDBRANCH  31  32
BRANCH  31  39
ATOM     39  CB  LEU A   5      -7.106  -1.312  17.134  0.00  0.00    +0.029 C 
BRANCH  39  40
ATOM     40  CG  LEU A   5      -8.378  -0.608  16.656  0.00  0.00    +0.002 C 
ATOM     41  CD2 LEU A   5      -9.511  -0.851  17.638  0.00  0.00    +0.000 C 
ATOM     42  CD1 LEU A   5      -8.144   0.883  16.473  0.00  0.00    +0.000 C 
ENDBRANCH  39  40
ENDBRANCH  31  39
ENDBRANCH  28  31
ENDBRANCH  26  27
BRANCH  26  43
ATOM     43  CB  LEU A   4      -5.156  -2.310  11.768  0.00  0.00    +0.029 C 
BRANCH  43  44
ATOM     44  CG  LEU A   4      -4.164  -3.242  12.465  0.00  0.00    +0.002 C 
ATOM     45  CD2 LEU A   4      -4.825  -4.557  12.835  0.00  0.00    +0.000 C 
ATOM     46  CD1 LEU A   4      -2.953  -3.478  11.580  0.00  0.00    +0.000 C 
ENDBRANCH  43  44
ENDBRANCH  26  43
ENDBRANCH  24  26
ENDBRANCH   1  22
BRANCH   1  47
ATOM     47  CB  ASN A   3      -8.907   1.586  11.584  0.00  0.00    +0.114 C 
BRANCH  47  48
ATOM     48  CG  ASN A   3      -9.272   2.673  10.606  0.00  0.00    +0.222 C 
ATOM     49  ND2 ASN A   3     -10.355   3.385  10.891  0.00  0.00    -0.329 N 
ATOM     50 HD21 ASN A   3     -10.897   3.184  11.756  0.00  0.00    +0.145 HD
ATOM     51 HD22 ASN A   3     -10.662   4.144  10.250  0.00  0.00    +0.145 HD
ATOM     52  OD1 ASN A   3      -8.592   2.867   9.596  0.00  0.00    -0.275 OA
ENDBRANCH  47  48
ENDBRANCH   1  47
TORSDOF 22
REMARK  Name = ../refined-set-2016/4rwj/4rwj_pocket.pdb
REMARK  245 active torsions:
REMARK  status: ('A' for Active; 'I' for Inactive)
REMARK    1  A    between atoms: _1  and  _3
REMARK    2  A    between atoms: _3  and  _4
REMARK    3  A    between atoms: _3  and  _6
REMARK    4  A    between atoms: _6  and  _7
REMARK    5  A    between atoms: _7  and  _8
REMARK    6  A    between atoms: _8  and  _9
REMARK    7  A    between atoms: _9  and  _10
REMARK    8  A    between atoms: _15  and  _16
REMARK    9  A    between atoms: _21  and  _23
REMARK   10  A    between atoms: _23  and  _24
REMARK   11  A    between atoms: _23  and  _26
REMARK   12  A    between atoms: _26  and  _27
REMARK   13  A    between atoms: _30  and  _32
REMARK   14  A    between atoms: _32  and  _33
REMARK   15  A    between atoms: _35  and  _37
REMARK   16  A    between atoms: _37  and  _38
REMARK   17  A    between atoms: _37  and  _40
REMARK   18  A    between atoms: _40  and  _41
REMARK   19  A    between atoms: _41  and  _42
REMARK   20  A    between atoms: _45  and  _47
REMARK   21  A    between atoms: _47  and  _48
REMARK   22  A    between atoms: _50  and  _52
REMARK   23  A    between atoms: _52  and  _53
REMARK   24  A    between atoms: _56  and  _58
REMARK   25  A    between atoms: _58  and  _59
REMARK   26  A    between atoms: _58  and  _61
REMARK   27  A    between atoms: _61  and  _62
REMARK   28  A    between atoms: _68  and  _70
REMARK   29  A    between atoms: _70  and  _71
REMARK   30  A    between atoms: _73  and  _75
REMARK   31  A    between atoms: _75  and  _76
REMARK   32  A    between atoms: _75  and  _78
REMARK   33  A    between atoms: _78  and  _79
REMARK   34  A    between atoms: _79  and  _80
REMARK   35  A    between atoms: _85  and  _87
REMARK   36  A    between atoms: _87  and  _88
REMARK   37  A    between atoms: _87  and  _90
REMARK   38  A    between atoms: _93  and  _95
REMARK   39  A    between atoms: _95  and  _96
REMARK   40  A    between atoms: _95  and  _98
REMARK   41  A    between atoms: _101  and  _103
REMARK   42  A    between atoms: _103  and  _104
REMARK   43  A    between atoms: _103  and  _106
REMARK   44  A    between atoms: _106  and  _107
REMARK   45  A    between atoms: _110  and  _112
REMARK   46  A    between atoms: _112  and  _113
REMARK   47  A    between atoms: _112  and  _115
REMARK   48  A    between atoms: _118  and  _120
REMARK   49  A    between atoms: _120  and  _121
REMARK   50  A    between atoms: _124  and  _126
REMARK   51  A    between atoms: _126  and  _127
REMARK   52  A    between atoms: _126  and  _129
REMARK   53  A    between atoms: _132  and  _134
REMARK   54  A    between atoms: _134  and  _135
REMARK   55  A    between atoms: _134  and  _137
REMARK   56  A    between atoms: _137  and  _138
REMARK   57  A    between atoms: _138  and  _139
REMARK   58  A    between atoms: _139  and  _140
REMARK   59  A    between atoms: _140  and  _141
REMARK   60  A    between atoms: _145  and  _147
REMARK   61  A    between atoms: _147  and  _148
REMARK   62  A    between atoms: _147  and  _150
REMARK   63  A    between atoms: _150  and  _151
REMARK   64  A    between atoms: _151  and  _152
REMARK   65  A    between atoms: _154  and  _156
REMARK   66  A    between atoms: _156  and  _157
REMARK   67  A    between atoms: _156  and  _159
REMARK   68  A    between atoms: _159  and  _160
REMARK   69  A    between atoms: _163  and  _165
REMARK   70  A    between atoms: _165  and  _166
REMARK   71  A    between atoms: _165  and  _168
REMARK   72  A    between atoms: _168  and  _169
REMARK   73  A    between atoms: _172  and  _174
REMARK   74  A    between atoms: _174  and  _175
REMARK   75  A    between atoms: _174  and  _177
REMARK   76  A    between atoms: _177  and  _178
REMARK   77  A    between atoms: _178  and  _179
REMARK   78  A    between atoms: _182  and  _184
REMARK   79  A    between atoms: _184  and  _185
REMARK   80  A    between atoms: _184  and  _187
REMARK   81  A    between atoms: _187  and  _188
REMARK   82  A    between atoms: _188  and  _189
REMARK   83  A    between atoms: _191  and  _193
REMARK   84  A    between atoms: _193  and  _194
REMARK   85  A    between atoms: _193  and  _196
REMARK   86  A    between atoms: _196  and  _197
REMARK   87  A    between atoms: _197  and  _198
REMARK   88  A    between atoms: _200  and  _202
REMARK   89  A    between atoms: _202  and  _203
REMARK   90  A    between atoms: _202  and  _205
REMARK   91  A    between atoms: _205  and  _206
REMARK   92  A    between atoms: _209  and  _211
REMARK   93  A    between atoms: _211  and  _212
REMARK   94  A    between atoms: _211  and  _214
REMARK   95  A    between atoms: _214  and  _215
REMARK   96  A    between atoms: _218  and  _220
REMARK   97  A    between atoms: _220  and  _221
REMARK   98  A    between atoms: _220  and  _223
REMARK   99  A    between atoms: _223  and  _224
REMARK  100  A    between atoms: _229  and  _231
REMARK  101  A    between atoms: _231  and  _232
REMARK  102  A    between atoms: _231  and  _234
REMARK  103  A    between atoms: _234  and  _235
REMARK  104  A    between atoms: _238  and  _240
REMARK  105  A    between atoms: _240  and  _241
REMARK  106  A    between atoms: _240  and  _243
REMARK  107  A    between atoms: _243  and  _244
REMARK  108  A    between atoms: _247  and  _249
REMARK  109  A    between atoms: _249  and  _250
REMARK  110  A    between atoms: _252  and  _254
REMARK  111  A    between atoms: _254  and  _255
REMARK  112  A    between atoms: _254  and  _257
REMARK  113  A    between atoms: _257  and  _258
REMARK  114  A    between atoms: _263  and  _264
REMARK  115  A    between atoms: _266  and  _268
REMARK  116  A    between atoms: _268  and  _269
REMARK  117  A    between atoms: _268  and  _271
REMARK  118  A    between atoms: _274  and  _276
REMARK  119  A    between atoms: _276  and  _277
REMARK  120  A    between atoms: _276  and  _279
REMARK  121  A    between atoms: _279  and  _280
REMARK  122  A    between atoms: _283  and  _285
REMARK  123  A    between atoms: _285  and  _286
REMARK  124  A    between atoms: _285  and  _288
REMARK  125  A    between atoms: _291  and  _293
REMARK  126  A    between atoms: _293  and  _294
REMARK  127  A    between atoms: _293  and  _296
REMARK  128  A    between atoms: _296  and  _297
REMARK  129  A    between atoms: _297  and  _298
REMARK  130  A    between atoms: _301  and  _303
REMARK  131  A    between atoms: _303  and  _304
REMARK  132  A    between atoms: _303  and  _306
REMARK  133  A    between atoms: _306  and  _307
REMARK  134  A    between atoms: _312  and  _313
REMARK  135  A    between atoms: _315  and  _317
REMARK  136  A    between atoms: _317  and  _318
REMARK  137  A    between atoms: _321  and  _323
REMARK  138  A    between atoms: _323  and  _324
REMARK  139  A    between atoms: _323  and  _326
REMARK  140  A    between atoms: _326  and  _327
REMARK  141  A    between atoms: _329  and  _331
REMARK  142  A    between atoms: _331  and  _332
REMARK  143  A    between atoms: _331  and  _334
REMARK  144  A    between atoms: _334  and  _335
REMARK  145  A    between atoms: _335  and  _336
REMARK  146  A    between atoms: _336  and  _337
REMARK  147  A    between atoms: _337  and  _338
REMARK  148  A    between atoms: _342  and  _344
REMARK  149  A    between atoms: _344  and  _345
REMARK  150  A    between atoms: _347  and  _349
REMARK  151  A    between atoms: _349  and  _350
REMARK  152  A    between atoms: _349  and  _352
REMARK  153  A    between atoms: _352  and  _353
REMARK  154  A    between atoms: _358  and  _360
REMARK  155  A    between atoms: _360  and  _361
REMARK  156  A    between atoms: _360  and  _363
REMARK  157  A    between atoms: _363  and  _364
REMARK  158  A    between atoms: _364  and  _365
REMARK  159  A    between atoms: _368  and  _370
REMARK  160  A    between atoms: _370  and  _371
REMARK  161  A    between atoms: _370  and  _373
REMARK  162  A    between atoms: _373  and  _374
REMARK  163  A    between atoms: _379  and  _380
REMARK  164  A    between atoms: _382  and  _384
REMARK  165  A    between atoms: _384  and  _385
REMARK  166  A    between atoms: _388  and  _390
REMARK  167  A    between atoms: _390  and  _391
REMARK  168  A    between atoms: _390  and  _393
REMARK  169  A    between atoms: _393  and  _394
REMARK  170  A    between atoms: _394  and  _395
REMARK  171  A    between atoms: _395  and  _396
REMARK  172  A    between atoms: _405  and  _407
REMARK  173  A    between atoms: _407  and  _408
REMARK  174  A    between atoms: _407  and  _410
REMARK  175  A    between atoms: _410  and  _411
REMARK  176  A    between atoms: _413  and  _415
REMARK  177  A    between atoms: _415  and  _416
REMARK  178  A    between atoms: _415  and  _418
REMARK  179  A    between atoms: _418  and  _419
REMARK  180  A    between atoms: _424  and  _426
REMARK  181  A    between atoms: _426  and  _427
REMARK  182  A    between atoms: _426  and  _429
REMARK  183  A    between atoms: _429  and  _430
REMARK  184  A    between atoms: _435  and  _437
REMARK  185  A    between atoms: _437  and  _438
REMARK  186  A    between atoms: _437  and  _440
REMARK  187  A    between atoms: _440  and  _441
REMARK  188  A    between atoms: _441  and  _442
REMARK  189  A    between atoms: _445  and  _447
REMARK  190  A    between atoms: _447  and  _448
REMARK  191  A    between atoms: _447  and  _450
REMARK  192  A    between atoms: _450  and  _451
REMARK  193  A    between atoms: _456  and  _458
REMARK  194  A    between atoms: _458  and  _459
REMARK  195  A    between atoms: _458  and  _461
REMARK  196  A    between atoms: _461  and  _462
REMARK  197  A    between atoms: _462  and  _463
REMARK  198  A    between atoms: _463  and  _464
REMARK  199  A    between atoms: _473  and  _475
REMARK  200  A    between atoms: _475  and  _476
REMARK  201  A    between atoms: _475  and  _478
REMARK  202  A    between atoms: _478  and  _479
REMARK  203  A    between atoms: _484  and  _486
REMARK  204  A    between atoms: _486  and  _487
REMARK  205  A    between atoms: _486  and  _489
REMARK  206  A    between atoms: _489  and  _490
REMARK  207  A    between atoms: _493  and  _495
REMARK  208  A    between atoms: _495  and  _496
REMARK  209  A    between atoms: _495  and  _498
REMARK  210  A    between atoms: _501  and  _503
REMARK  211  A    between atoms: _503  and  _504
REMARK  212  A    between atoms: _503  and  _506
REMARK  213  A    between atoms: _506  and  _507
REMARK  214  A    between atoms: _510  and  _512
REMARK  215  A    between atoms: _512  and  _513
REMARK  216  A    between atoms: _512  and  _515
REMARK  217  A    between atoms: _515  and  _516
REMARK  218  A    between atoms: _516  and  _517
REMARK  219  A    between atoms: _520  and  _522
REMARK  220  A    between atoms: _522  and  _523
REMARK  221  A    between atoms: _522  and  _525
REMARK  222  A    between atoms: _525  and  _526
REMARK  223  A    between atoms: _526  and  _527
REMARK  224  A    between atoms: _527  and  _528
REMARK  225  A    between atoms: _528  and  _529
REMARK  226  A    between atoms: _533  and  _535
REMARK  227  A    between atoms: _535  and  _536
REMARK  228  A    between atoms: _535  and  _538
REMARK  229  A    between atoms: _538  and  _539
REMARK  230  A    between atoms: _542  and  _544
REMARK  231  A    between atoms: _544  and  _545
REMARK  232  A    between atoms: _548  and  _550
REMARK  233  A    between atoms: _550  and  _551
REMARK  234  A    between atoms: _550  and  _553
REMARK  235  A    between atoms: _553  and  _554
REMARK  236  A    between atoms: _557  and  _559
REMARK  237  A    between atoms: _559  and  _560
REMARK  238  A    between atoms: _559  and  _562
REMARK  239  A    between atoms: _562  and  _563
REMARK  240  A    between atoms: _569  and  _571
REMARK  241  A    between atoms: _571  and  _572
REMARK  242  A    between atoms: _574  and  _576
REMARK  243  A    between atoms: _576  and  _577
REMARK  244  A    between atoms: _576  and  _579
REMARK  245  A    between atoms: _579  and  _580
REMARK                            x       y       z     vdW  Elec       q    Type
REMARK                         _______ _______ _______ _____ _____    ______ ____
ROOT
ATOM      1  CA  TYR A   6     -15.731  -2.443  16.792  0.00  0.00    +0.153 C 
ENDROOT
BRANCH   1   3
ATOM      2  C   GLU A   5     -13.722  -2.111  15.442  0.00  0.00    +0.241 C 
ATOM      3  N   TYR A   6     -14.474  -1.775  16.486  0.00  0.00    -0.297 N 
ATOM      4  H   TYR A   6     -14.152  -1.006  17.108  0.00  0.00    +0.150 HD
ATOM      5  O   GLU A   5     -14.056  -2.956  14.610  0.00  0.00    -0.273 OA
BRANCH   2   6
ATOM      6  CA  GLU A   5     -12.394  -1.368  15.325  0.00  0.00    +0.149 C 
BRANCH   6   9
ATOM      7  C   VAL A   4     -10.813  -3.222  15.415  0.00  0.00    +0.241 C 
ATOM      8  O   VAL A   4     -11.195  -3.559  16.536  0.00  0.00    -0.273 OA
ATOM      9  N   GLU A   5     -11.344  -2.202  14.747  0.00  0.00    -0.297 N 
ATOM     10  H   GLU A   5     -11.002  -1.993  13.787  0.00  0.00    +0.150 HD
BRANCH   7  11
ATOM     11  CA  VAL A   4      -9.692  -3.982  14.708  0.00  0.00    +0.149 C 
BRANCH  11  13
ATOM     12  C   ILE A   3      -7.830  -5.162  15.754  0.00  0.00    +0.241 C 
ATOM     13  N   VAL A   4      -9.140  -5.045  15.542  0.00  0.00    -0.297 N 
ATOM     14  H   VAL A   4      -9.787  -5.730  15.983  0.00  0.00    +0.150 HD
ATOM     15  O   ILE A   3      -7.000  -4.369  15.305  0.00  0.00    -0.273 OA
BRANCH  12  16
ATOM     16  CA  ILE A   3      -7.390  -6.350  16.598  0.00  0.00    +0.149 C 
BRANCH  16  18
ATOM     17  C   VAL A   2      -6.899  -8.326  15.254  0.00  0.00    +0.241 C 
ATOM     18  N   ILE A   3      -6.479  -7.217  15.856  0.00  0.00    -0.297 N 
ATOM     19  H   ILE A   3      -5.473  -6.960  15.797  0.00  0.00    +0.150 HD
ATOM     20  O   VAL A   2      -8.088  -8.644  15.186  0.00  0.00    -0.273 OA
BRANCH  17  21
ATOM     21  CA  VAL A   2      -5.814  -9.219  14.652  0.00  0.00    +0.148 C 
BRANCH  21  24
ATOM     22  C   TYR A   1      -4.870 -10.851  16.183  0.00  0.00    +0.239 C 
ATOM     23  O   TYR A   1      -3.860 -10.169  16.357  0.00  0.00    -0.274 OA
ATOM     24  N   VAL A   2      -5.826 -10.514  15.324  0.00  0.00    -0.297 N 
ATOM     25  H   VAL A   2      -6.596 -11.185  15.127  0.00  0.00    +0.150 HD
BRANCH  22  26
ATOM     26  CA  TYR A   1      -5.067 -12.150  16.955  0.00  0.00    +0.149 C 
BRANCH  26  27
ATOM     27  N   TYR A   1      -3.932 -13.051  16.767  0.00  0.00    -0.238 NA
ATOM     28  H   TYR A   1      -3.001 -12.756  17.123  0.00  0.00    +0.142 HD
ENDBRANCH  26  27
BRANCH  26  29
ATOM     29  CB  TYR A   1      -5.282 -11.810  18.433  0.00  0.00    +0.053 C 
BRANCH  29  30
ATOM     30  CG  TYR A   1      -5.799 -12.929  19.309  0.00  0.00    -0.020 A 
ATOM     31  CD2 TYR A   1      -5.730 -12.828  20.692  0.00  0.00    -0.001 A 
ATOM     32  CE2 TYR A   1      -6.206 -13.832  21.508  0.00  0.00    +0.036 A 
ATOM     33  CZ  TYR A   1      -6.771 -14.955  20.947  0.00  0.00    +0.134 A 
ATOM     34  CE1 TYR A   1      -6.861 -15.081  19.574  0.00  0.00    +0.036 A 
ATOM     35  CD1 TYR A   1      -6.379 -14.066  18.762  0.00  0.00    -0.001 A 
BRANCH  33  36
ATOM     36  OH  TYR A   1      -7.246 -15.951  21.770  0.00  0.00    -0.506 OA
ATOM     37  HH  TYR A   1      -7.100 -15.694  22.715  0.00  0.00    +0.292 HD
ENDBRANCH  33  36
ENDBRANCH  29  30
ENDBRANCH  26  29
ENDBRANCH  22  26
ENDBRANCH  21  24
BRANCH  21  38
ATOM     38  CB  VAL A   2      -6.017  -9.358  13.133  0.00  0.00    +0.027 C 
ATOM     39  CG2 VAL A   2      -4.968 -10.293  12.546  0.00  0.00    +0.002 C 
ATOM     40  CG1 VAL A   2      -5.939  -7.999  12.468  0.00  0.00    +0.002 C 
ENDBRANCH  21  38
ENDBRANCH  17  21
ENDBRANCH  16  18
BRANCH  16  41
ATOM     41  CB  ILE A   3      -6.737  -5.831  17.896  0.00  0.00    +0.027 C 
ATOM     42  CG2 ILE A   3      -7.755  -5.091  18.755  0.00  0.00    +0.002 C 
BRANCH  41  43
ATOM     43  CG1 ILE A   3      -6.094  -6.983  18.669  0.00  0.00    +0.002 C 
ATOM     44  CD1 ILE A   3      -5.318  -6.536  19.878  0.00  0.00    +0.000 C 
ENDBRANCH  41  43
ENDBRANCH  16  41
ENDBRANCH  12  16
ENDBRANCH  11  13
BRANCH  11  45
ATOM     45  CB  VAL A   4     -10.230  -4.539  13.373  0.00  0.00    +0.027 C 
ATOM     46  CG2 VAL A   4     -11.333  -5.552  13.626  0.00  0.00    +0.002 C 
ATOM     47  CG1 VAL A   4      -9.102  -5.163  12.557  0.00  0.00    +0.002 C 
ENDBRANCH  11  45
ENDBRANCH   7  11
ENDBRANCH   6   9
BRANCH   6  48
ATOM     48  CB  GLU A   5     -12.585  -0.096  14.499  0.00  0.00    +0.041 C 
BRANCH  48  49
ATOM     49  CG  GLU A   5     -11.498   0.948  14.702  0.00  0.00    +0.116 C 
BRANCH  49  50
ATOM     50  CD  GLU A   5     -11.697   2.161  13.815  0.00  0.00    +0.365 C 
ATOM     51  OE2 GLU A   5     -11.312   3.277  14.226  0.00  0.00    -0.246 OA
ATOM     52  OE1 GLU A   5     -12.231   1.995  12.699  0.00  0.00    -0.246 OA
ENDBRANCH  49  50
ENDBRANCH  48  49
ENDBRANCH   6  48
ENDBRANCH   2   6
ENDBRANCH   1   3
BRANCH   1  53
ATOM     53  C   TYR A   6     -16.936  -1.599  16.394  0.00  0.00    +0.241 C 
ATOM     54  O   TYR A   6     -17.054  -0.444  16.798  0.00  0.00    -0.273 OA
ATOM     55  N   ALA A   7     -17.820  -2.182  15.589  0.00  0.00    -0.297 N 
ATOM     56  H   ALA A   7     -17.623  -3.139  15.233  0.00  0.00    +0.150 HD
BRANCH  55  57
ATOM     57  CA  ALA A   7     -19.057  -1.520  15.191  0.00  0.00    +0.149 C 
ATOM     58  CB  ALA A   7     -19.195  -1.509  13.683  0.00  0.00    +0.031 C 
BRANCH  57  59
ATOM     59  C   ALA A   7     -20.246  -2.222  15.838  0.00  0.00    +0.241 C 
ATOM     60  N   SER A   8     -20.872  -1.551  16.800  0.00  0.00    -0.295 N 
ATOM     61  H   SER A   8     -20.640  -0.548  16.947  0.00  0.00    +0.150 HD
ATOM     62  O   ALA A   7     -20.588  -3.343  15.469  0.00  0.00    -0.273 OA
BRANCH  60  63
ATOM     63  CA  SER A   8     -21.877  -2.177  17.659  0.00  0.00    +0.178 C 
BRANCH  63  64
ATOM     64  C   SER A   8     -23.254  -2.353  17.021  0.00  0.00    +0.243 C 
ATOM     65  O   SER A   8     -24.092  -3.081  17.552  0.00  0.00    -0.273 OA
ATOM     66  N   LYS A   9     -23.499  -1.691  15.895  0.00  0.00    -0.297 N 
ATOM     67  H   LYS A   9     -22.737  -1.154  15.434  0.00  0.00    +0.150 HD
BRANCH  66  68
ATOM     68  CA  LYS A   9     -24.834  -1.713  15.301  0.00  0.00    +0.149 C 
BRANCH  68  69
ATOM     69  C   LYS A   9     -24.935  -2.598  14.060  0.00  0.00    +0.241 C 
ATOM     70  N   GLY A  10     -23.984  -3.511  13.899  0.00  0.00    -0.295 N 
ATOM     71  H   GLY A  10     -23.176  -3.523  14.553  0.00  0.00    +0.150 HD
ATOM     72  O   LYS A   9     -25.864  -2.455  13.268  0.00  0.00    -0.273 OA
BRANCH  70  73
ATOM     73  CA  GLY A  10     -24.046  -4.494  12.830  0.00  0.00    +0.176 C 
BRANCH  73  74
ATOM     74  C   GLY A  10     -23.826  -3.926  11.442  0.00  0.00    +0.243 C 
ATOM     75  O   GLY A  10     -23.476  -2.757  11.287  0.00  0.00    -0.273 OA
ATOM     76  N   ASN A  11     -24.032  -4.756  10.424  0.00  0.00    -0.298 N 
ATOM     77  H   ASN A  11     -24.361  -5.725  10.608  0.00  0.00    +0.150 HD
BRANCH  76  78
ATOM     78  CA  ASN A  11     -23.801  -4.319   9.054  0.00  0.00    +0.146 C 
BRANCH  78  79
ATOM     79  C   ASN A  11     -24.922  -3.417   8.553  0.00  0.00    +0.227 C 
ATOM     80  O   ASN A  11     -25.996  -3.354   9.150  0.00  0.00    -0.286 OA
ENDBRANCH  78  79
BRANCH  78  81
ATOM     81  CB  ASN A  11     -23.617  -5.521   8.117  0.00  0.00    +0.112 C 
BRANCH  81  82
ATOM     82  CG  ASN A  11     -24.871  -6.363   7.980  0.00  0.00    +0.222 C 
ATOM     83  ND2 ASN A  11     -24.812  -7.591   8.482  0.00  0.00    -0.329 N 
ATOM     84 HD21 ASN A  11     -23.944  -7.920   8.952  0.00  0.00    +0.145 HD
ATOM     85 HD22 ASN A  11     -25.633  -8.224   8.405  0.00  0.00    +0.145 HD
ATOM     86  OD1 ASN A  11     -25.874  -5.925   7.414  0.00  0.00    -0.275 OA
ENDBRANCH  81  82
ENDBRANCH  78  81
ENDBRANCH  76  78
ENDBRANCH  73  74
ENDBRANCH  70  73
ENDBRANCH  68  69
BRANCH  68  87
ATOM     87  CB  LYS A   9     -25.285  -0.290  14.968  0.00  0.00    +0.029 C 
BRANCH  87  88
ATOM     88  CG  LYS A   9     -25.612   0.531  16.204  0.00  0.00    +0.000 C 
BRANCH  88  89
ATOM     89  CD  LYS A   9     -26.068   1.935  15.858  0.00  0.00    -0.024 C 
BRANCH  89  90
ATOM     90  CE  LYS A   9     -26.420   2.706  17.121  0.00  0.00    -0.086 C 
BRANCH  90  91
ATOM     91  NZ  LYS A   9     -26.843   4.100  16.830  0.00  0.00    +0.380 N 
ATOM     92  HZ1 LYS A   9     -27.072   4.585  17.721  0.00  0.00    -0.089 HD
ATOM     93  HZ2 LYS A   9     -26.069   4.603  16.350  0.00  0.00    -0.089 HD
ATOM     94  HZ3 LYS A   9     -27.682   4.085  16.216  0.00  0.00    -0.089 HD
ENDBRANCH  90  91
ENDBRANCH  89  90
ENDBRANCH  88  89
ENDBRANCH  87  88
ENDBRANCH  68  87
ENDBRANCH  66  68
ENDBRANCH  63  64
BRANCH  63  95
ATOM     95  CB  SER A   8     -22.026  -1.370  18.951  0.00  0.00    +0.166 C 
BRANCH  95  96
ATOM     96  OG  SER A   8     -22.445  -0.046  18.679  0.00  0.00    -0.380 OA
ATOM     97  H   SER A   8     -22.533   0.452  19.530  0.00  0.00    +0.211 HD
ENDBRANCH  95  96
ENDBRANCH  63  95
ENDBRANCH  60  63
ENDBRANCH  57  59
ENDBRANCH  55  57
ENDBRANCH   1  53
BRANCH   1  98
ATOM     98  CB  TYR A   6     -15.790  -2.781  18.283  0.00  0.00    +0.055 C 
BRANCH  98  99
ATOM     99  CG  TYR A   6     -17.162  -3.170  18.789  0.00  0.00    -0.020 A 
ATOM    100  CD2 TYR A   6     -17.812  -2.403  19.749  0.00  0.00    -0.001 A 
ATOM    101  CE2 TYR A   6     -19.064  -2.759  20.226  0.00  0.00    +0.036 A 
ATOM    102  CZ  TYR A   6     -19.675  -3.898  19.747  0.00  0.00    +0.134 A 
ATOM    103  CE1 TYR A   6     -19.048  -4.678  18.797  0.00  0.00    +0.036 A 
ATOM    104  CD1 TYR A   6     -17.796  -4.314  18.327  0.00  0.00    -0.001 A 
BRANCH 102 105
ATOM    105  OH  TYR A   6     -20.918  -4.259  20.216  0.00  0.00    -0.506 OA
ATOM    106  HH  TYR A   6     -20.871  -4.404  21.194  0.00  0.00    +0.292 HD
ENDBRANCH 102 105
ENDBRANCH  98  99
ENDBRANCH   1  98
TORSDOF 44
REMARK  Name = ../refined-set-2016/4rwj/4rwj_pocket.pdb
REMARK  245 active torsions:
REMARK  status: ('A' for Active; 'I' for Inactive)
REMARK    1  A    between atoms: _1  and  _3
REMARK    2  A    between atoms: _3  and  _4
REMARK    3  A    between atoms: _3  and  _6
REMARK    4  A    between atoms: _6  and  _7
REMARK    5  A    between atoms: _7  and  _8
REMARK    6  A    between atoms: _8  and  _9
REMARK    7  A    between atoms: _9  and  _10
REMARK    8  A    between atoms: _15  and  _16
REMARK    9  A    between atoms: _21  and  _23
REMARK   10  A    between atoms: _23  and  _24
REMARK   11  A    between atoms: _23  and  _26
REMARK   12  A    between atoms: _26  and  _27
REMARK   13  A    between atoms: _30  and  _32
REMARK   14  A    between atoms: _32  and  _33
REMARK   15  A    between atoms: _35  and  _37
REMARK   16  A    between atoms: _37  and  _38
REMARK   17  A    between atoms: _37  and  _40
REMARK   18  A    between atoms: _40  and  _41
REMARK   19  A    between atoms: _41  and  _42
REMARK   20  A    between atoms: _45  and  _47
REMARK   21  A    between atoms: _47  and  _48
REMARK   22  A    between atoms: _50  and  _52
REMARK   23  A    between atoms: _52  and  _53
REMARK   24  A    between atoms: _56  and  _58
REMARK   25  A    between atoms: _58  and  _59
REMARK   26  A    between atoms: _58  and  _61
REMARK   27  A    between atoms: _61  and  _62
REMARK   28  A    between atoms: _68  and  _70
REMARK   29  A    between atoms: _70  and  _71
REMARK   30  A    between atoms: _73  and  _75
REMARK   31  A    between atoms: _75  and  _76
REMARK   32  A    between atoms: _75  and  _78
REMARK   33  A    between atoms: _78  and  _79
REMARK   34  A    between atoms: _79  and  _80
REMARK   35  A    between atoms: _85  and  _87
REMARK   36  A    between atoms: _87  and  _88
REMARK   37  A    between atoms: _87  and  _90
REMARK   38  A    between atoms: _93  and  _95
REMARK   39  A    between atoms: _95  and  _96
REMARK   40  A    between atoms: _95  and  _98
REMARK   41  A    between atoms: _101  and  _103
REMARK   42  A    between atoms: _103  and  _104
REMARK   43  A    between atoms: _103  and  _106
REMARK   44  A    between atoms: _106  and  _107
REMARK   45  A    between atoms: _110  and  _112
REMARK   46  A    between atoms: _112  and  _113
REMARK   47  A    between atoms: _112  and  _115
REMARK   48  A    between atoms: _118  and  _120
REMARK   49  A    between atoms: _120  and  _121
REMARK   50  A    between atoms: _124  and  _126
REMARK   51  A    between atoms: _126  and  _127
REMARK   52  A    between atoms: _126  and  _129
REMARK   53  A    between atoms: _132  and  _134
REMARK   54  A    between atoms: _134  and  _135
REMARK   55  A    between atoms: _134  and  _137
REMARK   56  A    between atoms: _137  and  _138
REMARK   57  A    between atoms: _138  and  _139
REMARK   58  A    between atoms: _139  and  _140
REMARK   59  A    between atoms: _140  and  _141
REMARK   60  A    between atoms: _145  and  _147
REMARK   61  A    between atoms: _147  and  _148
REMARK   62  A    between atoms: _147  and  _150
REMARK   63  A    between atoms: _150  and  _151
REMARK   64  A    between atoms: _151  and  _152
REMARK   65  A    between atoms: _154  and  _156
REMARK   66  A    between atoms: _156  and  _157
REMARK   67  A    between atoms: _156  and  _159
REMARK   68  A    between atoms: _159  and  _160
REMARK   69  A    between atoms: _163  and  _165
REMARK   70  A    between atoms: _165  and  _166
REMARK   71  A    between atoms: _165  and  _168
REMARK   72  A    between atoms: _168  and  _169
REMARK   73  A    between atoms: _172  and  _174
REMARK   74  A    between atoms: _174  and  _175
REMARK   75  A    between atoms: _174  and  _177
REMARK   76  A    between atoms: _177  and  _178
REMARK   77  A    between atoms: _178  and  _179
REMARK   78  A    between atoms: _182  and  _184
REMARK   79  A    between atoms: _184  and  _185
REMARK   80  A    between atoms: _184  and  _187
REMARK   81  A    between atoms: _187  and  _188
REMARK   82  A    between atoms: _188  and  _189
REMARK   83  A    between atoms: _191  and  _193
REMARK   84  A    between atoms: _193  and  _194
REMARK   85  A    between atoms: _193  and  _196
REMARK   86  A    between atoms: _196  and  _197
REMARK   87  A    between atoms: _197  and  _198
REMARK   88  A    between atoms: _200  and  _202
REMARK   89  A    between atoms: _202  and  _203
REMARK   90  A    between atoms: _202  and  _205
REMARK   91  A    between atoms: _205  and  _206
REMARK   92  A    between atoms: _209  and  _211
REMARK   93  A    between atoms: _211  and  _212
REMARK   94  A    between atoms: _211  and  _214
REMARK   95  A    between atoms: _214  and  _215
REMARK   96  A    between atoms: _218  and  _220
REMARK   97  A    between atoms: _220  and  _221
REMARK   98  A    between atoms: _220  and  _223
REMARK   99  A    between atoms: _223  and  _224
REMARK  100  A    between atoms: _229  and  _231
REMARK  101  A    between atoms: _231  and  _232
REMARK  102  A    between atoms: _231  and  _234
REMARK  103  A    between atoms: _234  and  _235
REMARK  104  A    between atoms: _238  and  _240
REMARK  105  A    between atoms: _240  and  _241
REMARK  106  A    between atoms: _240  and  _243
REMARK  107  A    between atoms: _243  and  _244
REMARK  108  A    between atoms: _247  and  _249
REMARK  109  A    between atoms: _249  and  _250
REMARK  110  A    between atoms: _252  and  _254
REMARK  111  A    between atoms: _254  and  _255
REMARK  112  A    between atoms: _254  and  _257
REMARK  113  A    between atoms: _257  and  _258
REMARK  114  A    between atoms: _263  and  _264
REMARK  115  A    between atoms: _266  and  _268
REMARK  116  A    between atoms: _268  and  _269
REMARK  117  A    between atoms: _268  and  _271
REMARK  118  A    between atoms: _274  and  _276
REMARK  119  A    between atoms: _276  and  _277
REMARK  120  A    between atoms: _276  and  _279
REMARK  121  A    between atoms: _279  and  _280
REMARK  122  A    between atoms: _283  and  _285
REMARK  123  A    between atoms: _285  and  _286
REMARK  124  A    between atoms: _285  and  _288
REMARK  125  A    between atoms: _291  and  _293
REMARK  126  A    between atoms: _293  and  _294
REMARK  127  A    between atoms: _293  and  _296
REMARK  128  A    between atoms: _296  and  _297
REMARK  129  A    between atoms: _297  and  _298
REMARK  130  A    between atoms: _301  and  _303
REMARK  131  A    between atoms: _303  and  _304
REMARK  132  A    between atoms: _303  and  _306
REMARK  133  A    between atoms: _306  and  _307
REMARK  134  A    between atoms: _312  and  _313
REMARK  135  A    between atoms: _315  and  _317
REMARK  136  A    between atoms: _317  and  _318
REMARK  137  A    between atoms: _321  and  _323
REMARK  138  A    between atoms: _323  and  _324
REMARK  139  A    between atoms: _323  and  _326
REMARK  140  A    between atoms: _326  and  _327
REMARK  141  A    between atoms: _329  and  _331
REMARK  142  A    between atoms: _331  and  _332
REMARK  143  A    between atoms: _331  and  _334
REMARK  144  A    between atoms: _334  and  _335
REMARK  145  A    between atoms: _335  and  _336
REMARK  146  A    between atoms: _336  and  _337
REMARK  147  A    between atoms: _337  and  _338
REMARK  148  A    between atoms: _342  and  _344
REMARK  149  A    between atoms: _344  and  _345
REMARK  150  A    between atoms: _347  and  _349
REMARK  151  A    between atoms: _349  and  _350
REMARK  152  A    between atoms: _349  and  _352
REMARK  153  A    between atoms: _352  and  _353
REMARK  154  A    between atoms: _358  and  _360
REMARK  155  A    between atoms: _360  and  _361
REMARK  156  A    between atoms: _360  and  _363
REMARK  157  A    between atoms: _363  and  _364
REMARK  158  A    between atoms: _364  and  _365
REMARK  159  A    between atoms: _368  and  _370
REMARK  160  A    between atoms: _370  and  _371
REMARK  161  A    between atoms: _370  and  _373
REMARK  162  A    between atoms: _373  and  _374
REMARK  163  A    between atoms: _379  and  _380
REMARK  164  A    between atoms: _382  and  _384
REMARK  165  A    between atoms: _384  and  _385
REMARK  166  A    between atoms: _388  and  _390
REMARK  167  A    between atoms: _390  and  _391
REMARK  168  A    between atoms: _390  and  _393
REMARK  169  A    between atoms: _393  and  _394
REMARK  170  A    between atoms: _394  and  _395
REMARK  171  A    between atoms: _395  and  _396
REMARK  172  A    between atoms: _405  and  _407
REMARK  173  A    between atoms: _407  and  _408
REMARK  174  A    between atoms: _407  and  _410
REMARK  175  A    between atoms: _410  and  _411
REMARK  176  A    between atoms: _413  and  _415
REMARK  177  A    between atoms: _415  and  _416
REMARK  178  A    between atoms: _415  and  _418
REMARK  179  A    between atoms: _418  and  _419
REMARK  180  A    between atoms: _424  and  _426
REMARK  181  A    between atoms: _426  and  _427
REMARK  182  A    between atoms: _426  and  _429
REMARK  183  A    between atoms: _429  and  _430
REMARK  184  A    between atoms: _435  and  _437
REMARK  185  A    between atoms: _437  and  _438
REMARK  186  A    between atoms: _437  and  _440
REMARK  187  A    between atoms: _440  and  _441
REMARK  188  A    between atoms: _441  and  _442
REMARK  189  A    between atoms: _445  and  _447
REMARK  190  A    between atoms: _447  and  _448
REMARK  191  A    between atoms: _447  and  _450
REMARK  192  A    between atoms: _450  and  _451
REMARK  193  A    between atoms: _456  and  _458
REMARK  194  A    between atoms: _458  and  _459
REMARK  195  A    between atoms: _458  and  _461
REMARK  196  A    between atoms: _461  and  _462
REMARK  197  A    between atoms: _462  and  _463
REMARK  198  A    between atoms: _463  and  _464
REMARK  199  A    between atoms: _473  and  _475
REMARK  200  A    between atoms: _475  and  _476
REMARK  201  A    between atoms: _475  and  _478
REMARK  202  A    between atoms: _478  and  _479
REMARK  203  A    between atoms: _484  and  _486
REMARK  204  A    between atoms: _486  and  _487
REMARK  205  A    between atoms: _486  and  _489
REMARK  206  A    between atoms: _489  and  _490
REMARK  207  A    between atoms: _493  and  _495
REMARK  208  A    between atoms: _495  and  _496
REMARK  209  A    between atoms: _495  and  _498
REMARK  210  A    between atoms: _501  and  _503
REMARK  211  A    between atoms: _503  and  _504
REMARK  212  A    between atoms: _503  and  _506
REMARK  213  A    between atoms: _506  and  _507
REMARK  214  A    between atoms: _510  and  _512
REMARK  215  A    between atoms: _512  and  _513
REMARK  216  A    between atoms: _512  and  _515
REMARK  217  A    between atoms: _515  and  _516
REMARK  218  A    between atoms: _516  and  _517
REMARK  219  A    between atoms: _520  and  _522
REMARK  220  A    between atoms: _522  and  _523
REMARK  221  A    between atoms: _522  and  _525
REMARK  222  A    between atoms: _525  and  _526
REMARK  223  A    between atoms: _526  and  _527
REMARK  224  A    between atoms: _527  and  _528
REMARK  225  A    between atoms: _528  and  _529
REMARK  226  A    between atoms: _533  and  _535
REMARK  227  A    between atoms: _535  and  _536
REMARK  228  A    between atoms: _535  and  _538
REMARK  229  A    between atoms: _538  and  _539
REMARK  230  A    between atoms: _542  and  _544
REMARK  231  A    between atoms: _544  and  _545
REMARK  232  A    between atoms: _548  and  _550
REMARK  233  A    between atoms: _550  and  _551
REMARK  234  A    between atoms: _550  and  _553
REMARK  235  A    between atoms: _553  and  _554
REMARK  236  A    between atoms: _557  and  _559
REMARK  237  A    between atoms: _559  and  _560
REMARK  238  A    between atoms: _559  and  _562
REMARK  239  A    between atoms: _562  and  _563
REMARK  240  A    between atoms: _569  and  _571
REMARK  241  A    between atoms: _571  and  _572
REMARK  242  A    between atoms: _574  and  _576
REMARK  243  A    between atoms: _576  and  _577
REMARK  244  A    between atoms: _576  and  _579
REMARK  245  A    between atoms: _579  and  _580
REMARK                            x       y       z     vdW  Elec       q    Type
REMARK                         _______ _______ _______ _____ _____    ______ ____
ROOT
ATOM      1  C   GLU A   1     -29.866  -4.006   9.746  0.00  0.00    +0.238 C 
ATOM      2  O   GLU A   1     -30.925  -3.885  10.362  0.00  0.00    -0.274 OA
ATOM      3  N   TYR A   2     -28.945  -3.049   9.686  0.00  0.00    -0.298 N 
ATOM      4  H   TYR A   2     -28.057  -3.244   9.181  0.00  0.00    +0.150 HD
ENDROOT
BRANCH   1   5
ATOM      5  CA  GLU A   1     -29.537  -5.299   9.001  0.00  0.00    +0.145 C 
BRANCH   5   6
ATOM      6  N   GLU A   1     -28.698  -5.032   7.833  0.00  0.00    -0.238 NA
ATOM      7  H   GLU A   1     -27.709  -5.354   7.834  0.00  0.00    +0.142 HD
ENDBRANCH   5   6
BRANCH   5   8
ATOM      8  CB  GLU A   1     -28.862  -6.308   9.936  0.00  0.00    +0.038 C 
BRANCH   8   9
ATOM      9  CG  GLU A   1     -27.458  -5.926  10.375  0.00  0.00    +0.116 C 
BRANCH   9  10
ATOM     10  CD  GLU A   1     -26.750  -7.047  11.119  0.00  0.00    +0.365 C 
ATOM     11  OE2 GLU A   1     -27.438  -7.874  11.753  0.00  0.00    -0.246 OA
ATOM     12  OE1 GLU A   1     -25.503  -7.105  11.062  0.00  0.00    -0.246 OA
ENDBRANCH   9  10
ENDBRANCH   8   9
ENDBRANCH   5   8
ENDBRANCH   1   5
BRANCH   3  13
ATOM     13  CA  TYR A   2     -29.125  -1.736  10.298  0.00  0.00    +0.141 C 
BRANCH  13  14
ATOM     14  C   TYR A   2     -30.316  -0.997   9.695  0.00  0.00    +0.227 C 
ATOM     15  O   TYR A   2     -31.126  -0.405  10.414  0.00  0.00    -0.286 OA
ENDBRANCH  13  14
BRANCH  13  16
ATOM     16  CB  TYR A   2     -27.845  -0.910  10.129  0.00  0.00    +0.054 C 
BRANCH  16  17
ATOM     17  CG  TYR A   2     -27.936   0.537  10.563  0.00  0.00    -0.020 A 
ATOM     18  CD2 TYR A   2     -27.755   0.902  11.890  0.00  0.00    -0.001 A 
ATOM     19  CE2 TYR A   2     -27.826   2.227  12.284  0.00  0.00    +0.036 A 
ATOM     20  CZ  TYR A   2     -28.072   3.206  11.343  0.00  0.00    +0.134 A 
ATOM     21  CE1 TYR A   2     -28.245   2.871  10.018  0.00  0.00    +0.036 A 
ATOM     22  CD1 TYR A   2     -28.172   1.544   9.634  0.00  0.00    -0.001 A 
BRANCH  20  23
ATOM     23  OH  TYR A   2     -28.143   4.526  11.728  0.00  0.00    -0.506 OA
ATOM     24  HH  TYR A   2     -27.997   4.592  12.705  0.00  0.00    +0.292 HD
ENDBRANCH  20  23
ENDBRANCH  16  17
ENDBRANCH  13  16
ENDBRANCH   3  13
TORSDOF 10
REMARK  Name = ../refined-set-2016/4rwj/4rwj_pocket.pdb
REMARK  245 active torsions:
REMARK  status: ('A' for Active; 'I' for Inactive)
REMARK    1  A    between atoms: _1  and  _3
REMARK    2  A    between atoms: _3  and  _4
REMARK    3  A    between atoms: _3  and  _6
REMARK    4  A    between atoms: _6  and  _7
REMARK    5  A    between atoms: _7  and  _8
REMARK    6  A    between atoms: _8  and  _9
REMARK    7  A    between atoms: _9  and  _10
REMARK    8  A    between atoms: _15  and  _16
REMARK    9  A    between atoms: _21  and  _23
REMARK   10  A    between atoms: _23  and  _24
REMARK   11  A    between atoms: _23  and  _26
REMARK   12  A    between atoms: _26  and  _27
REMARK   13  A    between atoms: _30  and  _32
REMARK   14  A    between atoms: _32  and  _33
REMARK   15  A    between atoms: _35  and  _37
REMARK   16  A    between atoms: _37  and  _38
REMARK   17  A    between atoms: _37  and  _40
REMARK   18  A    between atoms: _40  and  _41
REMARK   19  A    between atoms: _41  and  _42
REMARK   20  A    between atoms: _45  and  _47
REMARK   21  A    between atoms: _47  and  _48
REMARK   22  A    between atoms: _50  and  _52
REMARK   23  A    between atoms: _52  and  _53
REMARK   24  A    between atoms: _56  and  _58
REMARK   25  A    between atoms: _58  and  _59
REMARK   26  A    between atoms: _58  and  _61
REMARK   27  A    between atoms: _61  and  _62
REMARK   28  A    between atoms: _68  and  _70
REMARK   29  A    between atoms: _70  and  _71
REMARK   30  A    between atoms: _73  and  _75
REMARK   31  A    between atoms: _75  and  _76
REMARK   32  A    between atoms: _75  and  _78
REMARK   33  A    between atoms: _78  and  _79
REMARK   34  A    between atoms: _79  and  _80
REMARK   35  A    between atoms: _85  and  _87
REMARK   36  A    between atoms: _87  and  _88
REMARK   37  A    between atoms: _87  and  _90
REMARK   38  A    between atoms: _93  and  _95
REMARK   39  A    between atoms: _95  and  _96
REMARK   40  A    between atoms: _95  and  _98
REMARK   41  A    between atoms: _101  and  _103
REMARK   42  A    between atoms: _103  and  _104
REMARK   43  A    between atoms: _103  and  _106
REMARK   44  A    between atoms: _106  and  _107
REMARK   45  A    between atoms: _110  and  _112
REMARK   46  A    between atoms: _112  and  _113
REMARK   47  A    between atoms: _112  and  _115
REMARK   48  A    between atoms: _118  and  _120
REMARK   49  A    between atoms: _120  and  _121
REMARK   50  A    between atoms: _124  and  _126
REMARK   51  A    between atoms: _126  and  _127
REMARK   52  A    between atoms: _126  and  _129
REMARK   53  A    between atoms: _132  and  _134
REMARK   54  A    between atoms: _134  and  _135
REMARK   55  A    between atoms: _134  and  _137
REMARK   56  A    between atoms: _137  and  _138
REMARK   57  A    between atoms: _138  and  _139
REMARK   58  A    between atoms: _139  and  _140
REMARK   59  A    between atoms: _140  and  _141
REMARK   60  A    between atoms: _145  and  _147
REMARK   61  A    between atoms: _147  and  _148
REMARK   62  A    between atoms: _147  and  _150
REMARK   63  A    between atoms: _150  and  _151
REMARK   64  A    between atoms: _151  and  _152
REMARK   65  A    between atoms: _154  and  _156
REMARK   66  A    between atoms: _156  and  _157
REMARK   67  A    between atoms: _156  and  _159
REMARK   68  A    between atoms: _159  and  _160
REMARK   69  A    between atoms: _163  and  _165
REMARK   70  A    between atoms: _165  and  _166
REMARK   71  A    between atoms: _165  and  _168
REMARK   72  A    between atoms: _168  and  _169
REMARK   73  A    between atoms: _172  and  _174
REMARK   74  A    between atoms: _174  and  _175
REMARK   75  A    between atoms: _174  and  _177
REMARK   76  A    between atoms: _177  and  _178
REMARK   77  A    between atoms: _178  and  _179
REMARK   78  A    between atoms: _182  and  _184
REMARK   79  A    between atoms: _184  and  _185
REMARK   80  A    between atoms: _184  and  _187
REMARK   81  A    between atoms: _187  and  _188
REMARK   82  A    between atoms: _188  and  _189
REMARK   83  A    between atoms: _191  and  _193
REMARK   84  A    between atoms: _193  and  _194
REMARK   85  A    between atoms: _193  and  _196
REMARK   86  A    between atoms: _196  and  _197
REMARK   87  A    between atoms: _197  and  _198
REMARK   88  A    between atoms: _200  and  _202
REMARK   89  A    between atoms: _202  and  _203
REMARK   90  A    between atoms: _202  and  _205
REMARK   91  A    between atoms: _205  and  _206
REMARK   92  A    between atoms: _209  and  _211
REMARK   93  A    between atoms: _211  and  _212
REMARK   94  A    between atoms: _211  and  _214
REMARK   95  A    between atoms: _214  and  _215
REMARK   96  A    between atoms: _218  and  _220
REMARK   97  A    between atoms: _220  and  _221
REMARK   98  A    between atoms: _220  and  _223
REMARK   99  A    between atoms: _223  and  _224
REMARK  100  A    between atoms: _229  and  _231
REMARK  101  A    between atoms: _231  and  _232
REMARK  102  A    between atoms: _231  and  _234
REMARK  103  A    between atoms: _234  and  _235
REMARK  104  A    between atoms: _238  and  _240
REMARK  105  A    between atoms: _240  and  _241
REMARK  106  A    between atoms: _240  and  _243
REMARK  107  A    between atoms: _243  and  _244
REMARK  108  A    between atoms: _247  and  _249
REMARK  109  A    between atoms: _249  and  _250
REMARK  110  A    between atoms: _252  and  _254
REMARK  111  A    between atoms: _254  and  _255
REMARK  112  A    between atoms: _254  and  _257
REMARK  113  A    between atoms: _257  and  _258
REMARK  114  A    between atoms: _263  and  _264
REMARK  115  A    between atoms: _266  and  _268
REMARK  116  A    between atoms: _268  and  _269
REMARK  117  A    between atoms: _268  and  _271
REMARK  118  A    between atoms: _274  and  _276
REMARK  119  A    between atoms: _276  and  _277
REMARK  120  A    between atoms: _276  and  _279
REMARK  121  A    between atoms: _279  and  _280
REMARK  122  A    between atoms: _283  and  _285
REMARK  123  A    between atoms: _285  and  _286
REMARK  124  A    between atoms: _285  and  _288
REMARK  125  A    between atoms: _291  and  _293
REMARK  126  A    between atoms: _293  and  _294
REMARK  127  A    between atoms: _293  and  _296
REMARK  128  A    between atoms: _296  and  _297
REMARK  129  A    between atoms: _297  and  _298
REMARK  130  A    between atoms: _301  and  _303
REMARK  131  A    between atoms: _303  and  _304
REMARK  132  A    between atoms: _303  and  _306
REMARK  133  A    between atoms: _306  and  _307
REMARK  134  A    between atoms: _312  and  _313
REMARK  135  A    between atoms: _315  and  _317
REMARK  136  A    between atoms: _317  and  _318
REMARK  137  A    between atoms: _321  and  _323
REMARK  138  A    between atoms: _323  and  _324
REMARK  139  A    between atoms: _323  and  _326
REMARK  140  A    between atoms: _326  and  _327
REMARK  141  A    between atoms: _329  and  _331
REMARK  142  A    between atoms: _331  and  _332
REMARK  143  A    between atoms: _331  and  _334
REMARK  144  A    between atoms: _334  and  _335
REMARK  145  A    between atoms: _335  and  _336
REMARK  146  A    between atoms: _336  and  _337
REMARK  147  A    between atoms: _337  and  _338
REMARK  148  A    between atoms: _342  and  _344
REMARK  149  A    between atoms: _344  and  _345
REMARK  150  A    between atoms: _347  and  _349
REMARK  151  A    between atoms: _349  and  _350
REMARK  152  A    between atoms: _349  and  _352
REMARK  153  A    between atoms: _352  and  _353
REMARK  154  A    between atoms: _358  and  _360
REMARK  155  A    between atoms: _360  and  _361
REMARK  156  A    between atoms: _360  and  _363
REMARK  157  A    between atoms: _363  and  _364
REMARK  158  A    between atoms: _364  and  _365
REMARK  159  A    between atoms: _368  and  _370
REMARK  160  A    between atoms: _370  and  _371
REMARK  161  A    between atoms: _370  and  _373
REMARK  162  A    between atoms: _373  and  _374
REMARK  163  A    between atoms: _379  and  _380
REMARK  164  A    between atoms: _382  and  _384
REMARK  165  A    between atoms: _384  and  _385
REMARK  166  A    between atoms: _388  and  _390
REMARK  167  A    between atoms: _390  and  _391
REMARK  168  A    between atoms: _390  and  _393
REMARK  169  A    between atoms: _393  and  _394
REMARK  170  A    between atoms: _394  and  _395
REMARK  171  A    between atoms: _395  and  _396
REMARK  172  A    between atoms: _405  and  _407
REMARK  173  A    between atoms: _407  and  _408
REMARK  174  A    between atoms: _407  and  _410
REMARK  175  A    between atoms: _410  and  _411
REMARK  176  A    between atoms: _413  and  _415
REMARK  177  A    between atoms: _415  and  _416
REMARK  178  A    between atoms: _415  and  _418
REMARK  179  A    between atoms: _418  and  _419
REMARK  180  A    between atoms: _424  and  _426
REMARK  181  A    between atoms: _426  and  _427
REMARK  182  A    between atoms: _426  and  _429
REMARK  183  A    between atoms: _429  and  _430
REMARK  184  A    between atoms: _435  and  _437
REMARK  185  A    between atoms: _437  and  _438
REMARK  186  A    between atoms: _437  and  _440
REMARK  187  A    between atoms: _440  and  _441
REMARK  188  A    between atoms: _441  and  _442
REMARK  189  A    between atoms: _445  and  _447
REMARK  190  A    between atoms: _447  and  _448
REMARK  191  A    between atoms: _447  and  _450
REMARK  192  A    between atoms: _450  and  _451
REMARK  193  A    between atoms: _456  and  _458
REMARK  194  A    between atoms: _458  and  _459
REMARK  195  A    between atoms: _458  and  _461
REMARK  196  A    between atoms: _461  and  _462
REMARK  197  A    between atoms: _462  and  _463
REMARK  198  A    between atoms: _463  and  _464
REMARK  199  A    between atoms: _473  and  _475
REMARK  200  A    between atoms: _475  and  _476
REMARK  201  A    between atoms: _475  and  _478
REMARK  202  A    between atoms: _478  and  _479
REMARK  203  A    between atoms: _484  and  _486
REMARK  204  A    between atoms: _486  and  _487
REMARK  205  A    between atoms: _486  and  _489
REMARK  206  A    between atoms: _489  and  _490
REMARK  207  A    between atoms: _493  and  _495
REMARK  208  A    between atoms: _495  and  _496
REMARK  209  A    between atoms: _495  and  _498
REMARK  210  A    between atoms: _501  and  _503
REMARK  211  A    between atoms: _503  and  _504
REMARK  212  A    between atoms: _503  and  _506
REMARK  213  A    between atoms: _506  and  _507
REMARK  214  A    between atoms: _510  and  _512
REMARK  215  A    between atoms: _512  and  _513
REMARK  216  A    between atoms: _512  and  _515
REMARK  217  A    between atoms: _515  and  _516
REMARK  218  A    between atoms: _516  and  _517
REMARK  219  A    between atoms: _520  and  _522
REMARK  220  A    between atoms: _522  and  _523
REMARK  221  A    between atoms: _522  and  _525
REMARK  222  A    between atoms: _525  and  _526
REMARK  223  A    between atoms: _526  and  _527
REMARK  224  A    between atoms: _527  and  _528
REMARK  225  A    between atoms: _528  and  _529
REMARK  226  A    between atoms: _533  and  _535
REMARK  227  A    between atoms: _535  and  _536
REMARK  228  A    between atoms: _535  and  _538
REMARK  229  A    between atoms: _538  and  _539
REMARK  230  A    between atoms: _542  and  _544
REMARK  231  A    between atoms: _544  and  _545
REMARK  232  A    between atoms: _548  and  _550
REMARK  233  A    between atoms: _550  and  _551
REMARK  234  A    between atoms: _550  and  _553
REMARK  235  A    between atoms: _553  and  _554
REMARK  236  A    between atoms: _557  and  _559
REMARK  237  A    between atoms: _559  and  _560
REMARK  238  A    between atoms: _559  and  _562
REMARK  239  A    between atoms: _562  and  _563
REMARK  240  A    between atoms: _569  and  _571
REMARK  241  A    between atoms: _571  and  _572
REMARK  242  A    between atoms: _574  and  _576
REMARK  243  A    between atoms: _576  and  _577
REMARK  244  A    between atoms: _576  and  _579
REMARK  245  A    between atoms: _579  and  _580
REMARK                            x       y       z     vdW  Elec       q    Type
REMARK                         _______ _______ _______ _____ _____    ______ ____
ROOT
ATOM      1  CB  ARG A   2     -34.196   1.848  10.861  0.00  0.00    +0.031 C 
ENDROOT
BRANCH   1   2
ATOM      2  CA  ARG A   2     -35.330   0.821  10.886  0.00  0.00    +0.137 C 
BRANCH   2   5
ATOM      3  C   ALA A   1     -35.085  -1.441  11.737  0.00  0.00    +0.238 C 
ATOM      4  O   ALA A   1     -35.831  -1.210  12.687  0.00  0.00    -0.274 OA
ATOM      5  N   ARG A   2     -34.789  -0.530  10.817  0.00  0.00    -0.298 N 
ATOM      6  H   ARG A   2     -34.158  -0.786  10.031  0.00  0.00    +0.150 HD
BRANCH   3   7
ATOM      7  CA  ALA A   1     -34.451  -2.816  11.559  0.00  0.00    +0.145 C 
ATOM      8  CB  ALA A   1     -33.375  -3.043  12.618  0.00  0.00    +0.028 C 
BRANCH   7   9
ATOM      9  N   ALA A   1     -33.891  -2.973  10.221  0.00  0.00    -0.238 NA
ATOM     10  H   ALA A   1     -32.858  -2.971  10.101  0.00  0.00    +0.142 HD
ENDBRANCH   7   9
ENDBRANCH   3   7
ENDBRANCH   2   5
BRANCH   2  11
ATOM     11  C   ARG A   2     -36.313   1.065   9.747  0.00  0.00    +0.227 C 
ATOM     12  O   ARG A   2     -36.548   2.201   9.340  0.00  0.00    -0.286 OA
ENDBRANCH   2  11
ENDBRANCH   1   2
BRANCH   1  13
ATOM     13  CG  ARG A   2     -33.386   1.854  12.146  0.00  0.00    +0.045 C 
BRANCH  13  14
ATOM     14  CD  ARG A   2     -31.993   2.427  11.960  0.00  0.00    +0.174 C 
BRANCH  14  15
ATOM     15  NE  ARG A   2     -31.256   2.420  13.222  0.00  0.00    -0.265 N 
ATOM     16  HE  ARG A   2     -31.198   3.310  13.756  0.00  0.00    +0.259 HD
ATOM     17  CZ  ARG A   2     -30.655   1.349  13.731  0.00  0.00    +0.342 C 
ATOM     18  NH2 ARG A   2     -30.011   1.433  14.887  0.00  0.00    -0.292 N 
ATOM     19 HH21 ARG A   2     -29.975   2.338  15.398  0.00  0.00    +0.255 HD
ATOM     20 HH22 ARG A   2     -29.542   0.594  15.283  0.00  0.00    +0.255 HD
ATOM     21  NH1 ARG A   2     -30.693   0.193  13.082  0.00  0.00    -0.292 N 
ATOM     22 HH11 ARG A   2     -30.222  -0.644  13.482  0.00  0.00    +0.255 HD
ATOM     23 HH12 ARG A   2     -31.194   0.123  12.173  0.00  0.00    +0.255 HD
ENDBRANCH  14  15
ENDBRANCH  13  14
ENDBRANCH   1  13
TORSDOF 8
REMARK  Name = ../refined-set-2016/4rwj/4rwj_pocket.pdb
REMARK  245 active torsions:
REMARK  status: ('A' for Active; 'I' for Inactive)
REMARK    1  A    between atoms: _1  and  _3
REMARK    2  A    between atoms: _3  and  _4
REMARK    3  A    between atoms: _3  and  _6
REMARK    4  A    between atoms: _6  and  _7
REMARK    5  A    between atoms: _7  and  _8
REMARK    6  A    between atoms: _8  and  _9
REMARK    7  A    between atoms: _9  and  _10
REMARK    8  A    between atoms: _15  and  _16
REMARK    9  A    between atoms: _21  and  _23
REMARK   10  A    between atoms: _23  and  _24
REMARK   11  A    between atoms: _23  and  _26
REMARK   12  A    between atoms: _26  and  _27
REMARK   13  A    between atoms: _30  and  _32
REMARK   14  A    between atoms: _32  and  _33
REMARK   15  A    between atoms: _35  and  _37
REMARK   16  A    between atoms: _37  and  _38
REMARK   17  A    between atoms: _37  and  _40
REMARK   18  A    between atoms: _40  and  _41
REMARK   19  A    between atoms: _41  and  _42
REMARK   20  A    between atoms: _45  and  _47
REMARK   21  A    between atoms: _47  and  _48
REMARK   22  A    between atoms: _50  and  _52
REMARK   23  A    between atoms: _52  and  _53
REMARK   24  A    between atoms: _56  and  _58
REMARK   25  A    between atoms: _58  and  _59
REMARK   26  A    between atoms: _58  and  _61
REMARK   27  A    between atoms: _61  and  _62
REMARK   28  A    between atoms: _68  and  _70
REMARK   29  A    between atoms: _70  and  _71
REMARK   30  A    between atoms: _73  and  _75
REMARK   31  A    between atoms: _75  and  _76
REMARK   32  A    between atoms: _75  and  _78
REMARK   33  A    between atoms: _78  and  _79
REMARK   34  A    between atoms: _79  and  _80
REMARK   35  A    between atoms: _85  and  _87
REMARK   36  A    between atoms: _87  and  _88
REMARK   37  A    between atoms: _87  and  _90
REMARK   38  A    between atoms: _93  and  _95
REMARK   39  A    between atoms: _95  and  _96
REMARK   40  A    between atoms: _95  and  _98
REMARK   41  A    between atoms: _101  and  _103
REMARK   42  A    between atoms: _103  and  _104
REMARK   43  A    between atoms: _103  and  _106
REMARK   44  A    between atoms: _106  and  _107
REMARK   45  A    between atoms: _110  and  _112
REMARK   46  A    between atoms: _112  and  _113
REMARK   47  A    between atoms: _112  and  _115
REMARK   48  A    between atoms: _118  and  _120
REMARK   49  A    between atoms: _120  and  _121
REMARK   50  A    between atoms: _124  and  _126
REMARK   51  A    between atoms: _126  and  _127
REMARK   52  A    between atoms: _126  and  _129
REMARK   53  A    between atoms: _132  and  _134
REMARK   54  A    between atoms: _134  and  _135
REMARK   55  A    between atoms: _134  and  _137
REMARK   56  A    between atoms: _137  and  _138
REMARK   57  A    between atoms: _138  and  _139
REMARK   58  A    between atoms: _139  and  _140
REMARK   59  A    between atoms: _140  and  _141
REMARK   60  A    between atoms: _145  and  _147
REMARK   61  A    between atoms: _147  and  _148
REMARK   62  A    between atoms: _147  and  _150
REMARK   63  A    between atoms: _150  and  _151
REMARK   64  A    between atoms: _151  and  _152
REMARK   65  A    between atoms: _154  and  _156
REMARK   66  A    between atoms: _156  and  _157
REMARK   67  A    between atoms: _156  and  _159
REMARK   68  A    between atoms: _159  and  _160
REMARK   69  A    between atoms: _163  and  _165
REMARK   70  A    between atoms: _165  and  _166
REMARK   71  A    between atoms: _165  and  _168
REMARK   72  A    between atoms: _168  and  _169
REMARK   73  A    between atoms: _172  and  _174
REMARK   74  A    between atoms: _174  and  _175
REMARK   75  A    between atoms: _174  and  _177
REMARK   76  A    between atoms: _177  and  _178
REMARK   77  A    between atoms: _178  and  _179
REMARK   78  A    between atoms: _182  and  _184
REMARK   79  A    between atoms: _184  and  _185
REMARK   80  A    between atoms: _184  and  _187
REMARK   81  A    between atoms: _187  and  _188
REMARK   82  A    between atoms: _188  and  _189
REMARK   83  A    between atoms: _191  and  _193
REMARK   84  A    between atoms: _193  and  _194
REMARK   85  A    between atoms: _193  and  _196
REMARK   86  A    between atoms: _196  and  _197
REMARK   87  A    between atoms: _197  and  _198
REMARK   88  A    between atoms: _200  and  _202
REMARK   89  A    between atoms: _202  and  _203
REMARK   90  A    between atoms: _202  and  _205
REMARK   91  A    between atoms: _205  and  _206
REMARK   92  A    between atoms: _209  and  _211
REMARK   93  A    between atoms: _211  and  _212
REMARK   94  A    between atoms: _211  and  _214
REMARK   95  A    between atoms: _214  and  _215
REMARK   96  A    between atoms: _218  and  _220
REMARK   97  A    between atoms: _220  and  _221
REMARK   98  A    between atoms: _220  and  _223
REMARK   99  A    between atoms: _223  and  _224
REMARK  100  A    between atoms: _229  and  _231
REMARK  101  A    between atoms: _231  and  _232
REMARK  102  A    between atoms: _231  and  _234
REMARK  103  A    between atoms: _234  and  _235
REMARK  104  A    between atoms: _238  and  _240
REMARK  105  A    between atoms: _240  and  _241
REMARK  106  A    between atoms: _240  and  _243
REMARK  107  A    between atoms: _243  and  _244
REMARK  108  A    between atoms: _247  and  _249
REMARK  109  A    between atoms: _249  and  _250
REMARK  110  A    between atoms: _252  and  _254
REMARK  111  A    between atoms: _254  and  _255
REMARK  112  A    between atoms: _254  and  _257
REMARK  113  A    between atoms: _257  and  _258
REMARK  114  A    between atoms: _263  and  _264
REMARK  115  A    between atoms: _266  and  _268
REMARK  116  A    between atoms: _268  and  _269
REMARK  117  A    between atoms: _268  and  _271
REMARK  118  A    between atoms: _274  and  _276
REMARK  119  A    between atoms: _276  and  _277
REMARK  120  A    between atoms: _276  and  _279
REMARK  121  A    between atoms: _279  and  _280
REMARK  122  A    between atoms: _283  and  _285
REMARK  123  A    between atoms: _285  and  _286
REMARK  124  A    between atoms: _285  and  _288
REMARK  125  A    between atoms: _291  and  _293
REMARK  126  A    between atoms: _293  and  _294
REMARK  127  A    between atoms: _293  and  _296
REMARK  128  A    between atoms: _296  and  _297
REMARK  129  A    between atoms: _297  and  _298
REMARK  130  A    between atoms: _301  and  _303
REMARK  131  A    between atoms: _303  and  _304
REMARK  132  A    between atoms: _303  and  _306
REMARK  133  A    between atoms: _306  and  _307
REMARK  134  A    between atoms: _312  and  _313
REMARK  135  A    between atoms: _315  and  _317
REMARK  136  A    between atoms: _317  and  _318
REMARK  137  A    between atoms: _321  and  _323
REMARK  138  A    between atoms: _323  and  _324
REMARK  139  A    between atoms: _323  and  _326
REMARK  140  A    between atoms: _326  and  _327
REMARK  141  A    between atoms: _329  and  _331
REMARK  142  A    between atoms: _331  and  _332
REMARK  143  A    between atoms: _331  and  _334
REMARK  144  A    between atoms: _334  and  _335
REMARK  145  A    between atoms: _335  and  _336
REMARK  146  A    between atoms: _336  and  _337
REMARK  147  A    between atoms: _337  and  _338
REMARK  148  A    between atoms: _342  and  _344
REMARK  149  A    between atoms: _344  and  _345
REMARK  150  A    between atoms: _347  and  _349
REMARK  151  A    between atoms: _349  and  _350
REMARK  152  A    between atoms: _349  and  _352
REMARK  153  A    between atoms: _352  and  _353
REMARK  154  A    between atoms: _358  and  _360
REMARK  155  A    between atoms: _360  and  _361
REMARK  156  A    between atoms: _360  and  _363
REMARK  157  A    between atoms: _363  and  _364
REMARK  158  A    between atoms: _364  and  _365
REMARK  159  A    between atoms: _368  and  _370
REMARK  160  A    between atoms: _370  and  _371
REMARK  161  A    between atoms: _370  and  _373
REMARK  162  A    between atoms: _373  and  _374
REMARK  163  A    between atoms: _379  and  _380
REMARK  164  A    between atoms: _382  and  _384
REMARK  165  A    between atoms: _384  and  _385
REMARK  166  A    between atoms: _388  and  _390
REMARK  167  A    between atoms: _390  and  _391
REMARK  168  A    between atoms: _390  and  _393
REMARK  169  A    between atoms: _393  and  _394
REMARK  170  A    between atoms: _394  and  _395
REMARK  171  A    between atoms: _395  and  _396
REMARK  172  A    between atoms: _405  and  _407
REMARK  173  A    between atoms: _407  and  _408
REMARK  174  A    between atoms: _407  and  _410
REMARK  175  A    between atoms: _410  and  _411
REMARK  176  A    between atoms: _413  and  _415
REMARK  177  A    between atoms: _415  and  _416
REMARK  178  A    between atoms: _415  and  _418
REMARK  179  A    between atoms: _418  and  _419
REMARK  180  A    between atoms: _424  and  _426
REMARK  181  A    between atoms: _426  and  _427
REMARK  182  A    between atoms: _426  and  _429
REMARK  183  A    between atoms: _429  and  _430
REMARK  184  A    between atoms: _435  and  _437
REMARK  185  A    between atoms: _437  and  _438
REMARK  186  A    between atoms: _437  and  _440
REMARK  187  A    between atoms: _440  and  _441
REMARK  188  A    between atoms: _441  and  _442
REMARK  189  A    between atoms: _445  and  _447
REMARK  190  A    between atoms: _447  and  _448
REMARK  191  A    between atoms: _447  and  _450
REMARK  192  A    between atoms: _450  and  _451
REMARK  193  A    between atoms: _456  and  _458
REMARK  194  A    between atoms: _458  and  _459
REMARK  195  A    between atoms: _458  and  _461
REMARK  196  A    between atoms: _461  and  _462
REMARK  197  A    between atoms: _462  and  _463
REMARK  198  A    between atoms: _463  and  _464
REMARK  199  A    between atoms: _473  and  _475
REMARK  200  A    between atoms: _475  and  _476
REMARK  201  A    between atoms: _475  and  _478
REMARK  202  A    between atoms: _478  and  _479
REMARK  203  A    between atoms: _484  and  _486
REMARK  204  A    between atoms: _486  and  _487
REMARK  205  A    between atoms: _486  and  _489
REMARK  206  A    between atoms: _489  and  _490
REMARK  207  A    between atoms: _493  and  _495
REMARK  208  A    between atoms: _495  and  _496
REMARK  209  A    between atoms: _495  and  _498
REMARK  210  A    between atoms: _501  and  _503
REMARK  211  A    between atoms: _503  and  _504
REMARK  212  A    between atoms: _503  and  _506
REMARK  213  A    between atoms: _506  and  _507
REMARK  214  A    between atoms: _510  and  _512
REMARK  215  A    between atoms: _512  and  _513
REMARK  216  A    between atoms: _512  and  _515
REMARK  217  A    between atoms: _515  and  _516
REMARK  218  A    between atoms: _516  and  _517
REMARK  219  A    between atoms: _520  and  _522
REMARK  220  A    between atoms: _522  and  _523
REMARK  221  A    between atoms: _522  and  _525
REMARK  222  A    between atoms: _525  and  _526
REMARK  223  A    between atoms: _526  and  _527
REMARK  224  A    between atoms: _527  and  _528
REMARK  225  A    between atoms: _528  and  _529
REMARK  226  A    between atoms: _533  and  _535
REMARK  227  A    between atoms: _535  and  _536
REMARK  228  A    between atoms: _535  and  _538
REMARK  229  A    between atoms: _538  and  _539
REMARK  230  A    between atoms: _542  and  _544
REMARK  231  A    between atoms: _544  and  _545
REMARK  232  A    between atoms: _548  and  _550
REMARK  233  A    between atoms: _550  and  _551
REMARK  234  A    between atoms: _550  and  _553
REMARK  235  A    between atoms: _553  and  _554
REMARK  236  A    between atoms: _557  and  _559
REMARK  237  A    between atoms: _559  and  _560
REMARK  238  A    between atoms: _559  and  _562
REMARK  239  A    between atoms: _562  and  _563
REMARK  240  A    between atoms: _569  and  _571
REMARK  241  A    between atoms: _571  and  _572
REMARK  242  A    between atoms: _574  and  _576
REMARK  243  A    between atoms: _576  and  _577
REMARK  244  A    between atoms: _576  and  _579
REMARK  245  A    between atoms: _579  and  _580
REMARK                            x       y       z     vdW  Elec       q    Type
REMARK                         _______ _______ _______ _____ _____    ______ ____
ROOT
ATOM      1  CA  HIS A   2     -37.874  -8.003  16.780  0.00  0.00    +0.155 C 
ENDROOT
BRANCH   1   3
ATOM      2  C   SER A   1     -37.443  -7.146  14.542  0.00  0.00    +0.241 C 
ATOM      3  N   HIS A   2     -37.089  -7.929  15.556  0.00  0.00    -0.297 N 
ATOM      4  H   HIS A   2     -36.227  -8.505  15.473  0.00  0.00    +0.150 HD
ATOM      5  O   SER A   1     -38.490  -6.500  14.524  0.00  0.00    -0.274 OA
BRANCH   2   6
ATOM      6  CA  SER A   1     -36.463  -7.086  13.375  0.00  0.00    +0.174 C 
BRANCH   6   7
ATOM      7  N   SER A   1     -37.133  -7.156  12.083  0.00  0.00    -0.236 NA
ATOM      8  H   SER A   1     -37.385  -6.274  11.592  0.00  0.00    +0.142 HD
ENDBRANCH   6   7
BRANCH   6   9
ATOM      9  CB  SER A   1     -35.625  -5.809  13.467  0.00  0.00    +0.163 C 
BRANCH   9  10
ATOM     10  OG  SER A   1     -35.048  -5.670  14.754  0.00  0.00    -0.380 OA
ATOM     11  H   SER A   1     -34.513  -4.838  14.786  0.00  0.00    +0.211 HD
ENDBRANCH   9  10
ENDBRANCH   6   9
ENDBRANCH   2   6
ENDBRANCH   1   3
BRANCH   1  12
ATOM     12  C   HIS A   2     -37.440  -6.902  17.741  0.00  0.00    +0.241 C 
ATOM     13  O   HIS A   2     -37.976  -6.772  18.841  0.00  0.00    -0.273 OA
ATOM     14  N   ASN A   3     -36.458  -6.116  17.313  0.00  0.00    -0.298 N 
ATOM     15  H   ASN A   3     -35.988  -6.344  16.414  0.00  0.00    +0.150 HD
BRANCH  14  16
ATOM     16  CA  ASN A   3     -36.017  -4.945  18.062  0.00  0.00    +0.146 C 
BRANCH  16  17
ATOM     17  C   ASN A   3     -35.866  -3.740  17.139  0.00  0.00    +0.227 C 
ATOM     18  O   ASN A   3     -34.750  -3.284  16.884  0.00  0.00    -0.286 OA
ENDBRANCH  16  17
BRANCH  16  19
ATOM     19  CB  ASN A   3     -34.695  -5.226  18.779  0.00  0.00    +0.112 C 
BRANCH  19  20
ATOM     20  CG  ASN A   3     -34.706  -6.546  19.525  0.00  0.00    +0.222 C 
ATOM     21  OD1 ASN A   3     -35.221  -6.638  20.639  0.00  0.00    -0.275 OA
ATOM     22  ND2 ASN A   3     -34.133  -7.577  18.912  0.00  0.00    -0.329 N 
ATOM     23 HD21 ASN A   3     -34.108  -8.508  19.374  0.00  0.00    +0.145 HD
ATOM     24 HD22 ASN A   3     -33.710  -7.452  17.970  0.00  0.00    +0.145 HD
ENDBRANCH  19  20
ENDBRANCH  16  19
ENDBRANCH  14  16
ENDBRANCH   1  12
BRANCH   1  25
ATOM     25  CB  HIS A   2     -37.732  -9.377  17.433  0.00  0.00    +0.076 C 
BRANCH  25  26
ATOM     26  CG  HIS A   2     -38.407 -10.479  16.677  0.00  0.00    +0.082 A 
ATOM     27  ND1 HIS A   2     -38.607 -11.733  17.207  0.00  0.00    -0.227 NA
ATOM     28  CE1 HIS A   2     -39.224 -12.494  16.319  0.00  0.00    +0.199 A 
ATOM     29  NE2 HIS A   2     -39.431 -11.775  15.231  0.00  0.00    -0.221 NA
ATOM     30  CD2 HIS A   2     -38.932 -10.511  15.427  0.00  0.00    +0.115 A 
ENDBRANCH  25  26
ENDBRANCH   1  25
TORSDOF 12
REMARK  Name = ../refined-set-2016/4rwj/4rwj_pocket.pdb
REMARK  245 active torsions:
REMARK  status: ('A' for Active; 'I' for Inactive)
REMARK    1  A    between atoms: _1  and  _3
REMARK    2  A    between atoms: _3  and  _4
REMARK    3  A    between atoms: _3  and  _6
REMARK    4  A    between atoms: _6  and  _7
REMARK    5  A    between atoms: _7  and  _8
REMARK    6  A    between atoms: _8  and  _9
REMARK    7  A    between atoms: _9  and  _10
REMARK    8  A    between atoms: _15  and  _16
REMARK    9  A    between atoms: _21  and  _23
REMARK   10  A    between atoms: _23  and  _24
REMARK   11  A    between atoms: _23  and  _26
REMARK   12  A    between atoms: _26  and  _27
REMARK   13  A    between atoms: _30  and  _32
REMARK   14  A    between atoms: _32  and  _33
REMARK   15  A    between atoms: _35  and  _37
REMARK   16  A    between atoms: _37  and  _38
REMARK   17  A    between atoms: _37  and  _40
REMARK   18  A    between atoms: _40  and  _41
REMARK   19  A    between atoms: _41  and  _42
REMARK   20  A    between atoms: _45  and  _47
REMARK   21  A    between atoms: _47  and  _48
REMARK   22  A    between atoms: _50  and  _52
REMARK   23  A    between atoms: _52  and  _53
REMARK   24  A    between atoms: _56  and  _58
REMARK   25  A    between atoms: _58  and  _59
REMARK   26  A    between atoms: _58  and  _61
REMARK   27  A    between atoms: _61  and  _62
REMARK   28  A    between atoms: _68  and  _70
REMARK   29  A    between atoms: _70  and  _71
REMARK   30  A    between atoms: _73  and  _75
REMARK   31  A    between atoms: _75  and  _76
REMARK   32  A    between atoms: _75  and  _78
REMARK   33  A    between atoms: _78  and  _79
REMARK   34  A    between atoms: _79  and  _80
REMARK   35  A    between atoms: _85  and  _87
REMARK   36  A    between atoms: _87  and  _88
REMARK   37  A    between atoms: _87  and  _90
REMARK   38  A    between atoms: _93  and  _95
REMARK   39  A    between atoms: _95  and  _96
REMARK   40  A    between atoms: _95  and  _98
REMARK   41  A    between atoms: _101  and  _103
REMARK   42  A    between atoms: _103  and  _104
REMARK   43  A    between atoms: _103  and  _106
REMARK   44  A    between atoms: _106  and  _107
REMARK   45  A    between atoms: _110  and  _112
REMARK   46  A    between atoms: _112  and  _113
REMARK   47  A    between atoms: _112  and  _115
REMARK   48  A    between atoms: _118  and  _120
REMARK   49  A    between atoms: _120  and  _121
REMARK   50  A    between atoms: _124  and  _126
REMARK   51  A    between atoms: _126  and  _127
REMARK   52  A    between atoms: _126  and  _129
REMARK   53  A    between atoms: _132  and  _134
REMARK   54  A    between atoms: _134  and  _135
REMARK   55  A    between atoms: _134  and  _137
REMARK   56  A    between atoms: _137  and  _138
REMARK   57  A    between atoms: _138  and  _139
REMARK   58  A    between atoms: _139  and  _140
REMARK   59  A    between atoms: _140  and  _141
REMARK   60  A    between atoms: _145  and  _147
REMARK   61  A    between atoms: _147  and  _148
REMARK   62  A    between atoms: _147  and  _150
REMARK   63  A    between atoms: _150  and  _151
REMARK   64  A    between atoms: _151  and  _152
REMARK   65  A    between atoms: _154  and  _156
REMARK   66  A    between atoms: _156  and  _157
REMARK   67  A    between atoms: _156  and  _159
REMARK   68  A    between atoms: _159  and  _160
REMARK   69  A    between atoms: _163  and  _165
REMARK   70  A    between atoms: _165  and  _166
REMARK   71  A    between atoms: _165  and  _168
REMARK   72  A    between atoms: _168  and  _169
REMARK   73  A    between atoms: _172  and  _174
REMARK   74  A    between atoms: _174  and  _175
REMARK   75  A    between atoms: _174  and  _177
REMARK   76  A    between atoms: _177  and  _178
REMARK   77  A    between atoms: _178  and  _179
REMARK   78  A    between atoms: _182  and  _184
REMARK   79  A    between atoms: _184  and  _185
REMARK   80  A    between atoms: _184  and  _187
REMARK   81  A    between atoms: _187  and  _188
REMARK   82  A    between atoms: _188  and  _189
REMARK   83  A    between atoms: _191  and  _193
REMARK   84  A    between atoms: _193  and  _194
REMARK   85  A    between atoms: _193  and  _196
REMARK   86  A    between atoms: _196  and  _197
REMARK   87  A    between atoms: _197  and  _198
REMARK   88  A    between atoms: _200  and  _202
REMARK   89  A    between atoms: _202  and  _203
REMARK   90  A    between atoms: _202  and  _205
REMARK   91  A    between atoms: _205  and  _206
REMARK   92  A    between atoms: _209  and  _211
REMARK   93  A    between atoms: _211  and  _212
REMARK   94  A    between atoms: _211  and  _214
REMARK   95  A    between atoms: _214  and  _215
REMARK   96  A    between atoms: _218  and  _220
REMARK   97  A    between atoms: _220  and  _221
REMARK   98  A    between atoms: _220  and  _223
REMARK   99  A    between atoms: _223  and  _224
REMARK  100  A    between atoms: _229  and  _231
REMARK  101  A    between atoms: _231  and  _232
REMARK  102  A    between atoms: _231  and  _234
REMARK  103  A    between atoms: _234  and  _235
REMARK  104  A    between atoms: _238  and  _240
REMARK  105  A    between atoms: _240  and  _241
REMARK  106  A    between atoms: _240  and  _243
REMARK  107  A    between atoms: _243  and  _244
REMARK  108  A    between atoms: _247  and  _249
REMARK  109  A    between atoms: _249  and  _250
REMARK  110  A    between atoms: _252  and  _254
REMARK  111  A    between atoms: _254  and  _255
REMARK  112  A    between atoms: _254  and  _257
REMARK  113  A    between atoms: _257  and  _258
REMARK  114  A    between atoms: _263  and  _264
REMARK  115  A    between atoms: _266  and  _268
REMARK  116  A    between atoms: _268  and  _269
REMARK  117  A    between atoms: _268  and  _271
REMARK  118  A    between atoms: _274  and  _276
REMARK  119  A    between atoms: _276  and  _277
REMARK  120  A    between atoms: _276  and  _279
REMARK  121  A    between atoms: _279  and  _280
REMARK  122  A    between atoms: _283  and  _285
REMARK  123  A    between atoms: _285  and  _286
REMARK  124  A    between atoms: _285  and  _288
REMARK  125  A    between atoms: _291  and  _293
REMARK  126  A    between atoms: _293  and  _294
REMARK  127  A    between atoms: _293  and  _296
REMARK  128  A    between atoms: _296  and  _297
REMARK  129  A    between atoms: _297  and  _298
REMARK  130  A    between atoms: _301  and  _303
REMARK  131  A    between atoms: _303  and  _304
REMARK  132  A    between atoms: _303  and  _306
REMARK  133  A    between atoms: _306  and  _307
REMARK  134  A    between atoms: _312  and  _313
REMARK  135  A    between atoms: _315  and  _317
REMARK  136  A    between atoms: _317  and  _318
REMARK  137  A    between atoms: _321  and  _323
REMARK  138  A    between atoms: _323  and  _324
REMARK  139  A    between atoms: _323  and  _326
REMARK  140  A    between atoms: _326  and  _327
REMARK  141  A    between atoms: _329  and  _331
REMARK  142  A    between atoms: _331  and  _332
REMARK  143  A    between atoms: _331  and  _334
REMARK  144  A    between atoms: _334  and  _335
REMARK  145  A    between atoms: _335  and  _336
REMARK  146  A    between atoms: _336  and  _337
REMARK  147  A    between atoms: _337  and  _338
REMARK  148  A    between atoms: _342  and  _344
REMARK  149  A    between atoms: _344  and  _345
REMARK  150  A    between atoms: _347  and  _349
REMARK  151  A    between atoms: _349  and  _350
REMARK  152  A    between atoms: _349  and  _352
REMARK  153  A    between atoms: _352  and  _353
REMARK  154  A    between atoms: _358  and  _360
REMARK  155  A    between atoms: _360  and  _361
REMARK  156  A    between atoms: _360  and  _363
REMARK  157  A    between atoms: _363  and  _364
REMARK  158  A    between atoms: _364  and  _365
REMARK  159  A    between atoms: _368  and  _370
REMARK  160  A    between atoms: _370  and  _371
REMARK  161  A    between atoms: _370  and  _373
REMARK  162  A    between atoms: _373  and  _374
REMARK  163  A    between atoms: _379  and  _380
REMARK  164  A    between atoms: _382  and  _384
REMARK  165  A    between atoms: _384  and  _385
REMARK  166  A    between atoms: _388  and  _390
REMARK  167  A    between atoms: _390  and  _391
REMARK  168  A    between atoms: _390  and  _393
REMARK  169  A    between atoms: _393  and  _394
REMARK  170  A    between atoms: _394  and  _395
REMARK  171  A    between atoms: _395  and  _396
REMARK  172  A    between atoms: _405  and  _407
REMARK  173  A    between atoms: _407  and  _408
REMARK  174  A    between atoms: _407  and  _410
REMARK  175  A    between atoms: _410  and  _411
REMARK  176  A    between atoms: _413  and  _415
REMARK  177  A    between atoms: _415  and  _416
REMARK  178  A    between atoms: _415  and  _418
REMARK  179  A    between atoms: _418  and  _419
REMARK  180  A    between atoms: _424  and  _426
REMARK  181  A    between atoms: _426  and  _427
REMARK  182  A    between atoms: _426  and  _429
REMARK  183  A    between atoms: _429  and  _430
REMARK  184  A    between atoms: _435  and  _437
REMARK  185  A    between atoms: _437  and  _438
REMARK  186  A    between atoms: _437  and  _440
REMARK  187  A    between atoms: _440  and  _441
REMARK  188  A    between atoms: _441  and  _442
REMARK  189  A    between atoms: _445  and  _447
REMARK  190  A    between atoms: _447  and  _448
REMARK  191  A    between atoms: _447  and  _450
REMARK  192  A    between atoms: _450  and  _451
REMARK  193  A    between atoms: _456  and  _458
REMARK  194  A    between atoms: _458  and  _459
REMARK  195  A    between atoms: _458  and  _461
REMARK  196  A    between atoms: _461  and  _462
REMARK  197  A    between atoms: _462  and  _463
REMARK  198  A    between atoms: _463  and  _464
REMARK  199  A    between atoms: _473  and  _475
REMARK  200  A    between atoms: _475  and  _476
REMARK  201  A    between atoms: _475  and  _478
REMARK  202  A    between atoms: _478  and  _479
REMARK  203  A    between atoms: _484  and  _486
REMARK  204  A    between atoms: _486  and  _487
REMARK  205  A    between atoms: _486  and  _489
REMARK  206  A    between atoms: _489  and  _490
REMARK  207  A    between atoms: _493  and  _495
REMARK  208  A    between atoms: _495  and  _496
REMARK  209  A    between atoms: _495  and  _498
REMARK  210  A    between atoms: _501  and  _503
REMARK  211  A    between atoms: _503  and  _504
REMARK  212  A    between atoms: _503  and  _506
REMARK  213  A    between atoms: _506  and  _507
REMARK  214  A    between atoms: _510  and  _512
REMARK  215  A    between atoms: _512  and  _513
REMARK  216  A    between atoms: _512  and  _515
REMARK  217  A    between atoms: _515  and  _516
REMARK  218  A    between atoms: _516  and  _517
REMARK  219  A    between atoms: _520  and  _522
REMARK  220  A    between atoms: _522  and  _523
REMARK  221  A    between atoms: _522  and  _525
REMARK  222  A    between atoms: _525  and  _526
REMARK  223  A    between atoms: _526  and  _527
REMARK  224  A    between atoms: _527  and  _528
REMARK  225  A    between atoms: _528  and  _529
REMARK  226  A    between atoms: _533  and  _535
REMARK  227  A    between atoms: _535  and  _536
REMARK  228  A    between atoms: _535  and  _538
REMARK  229  A    between atoms: _538  and  _539
REMARK  230  A    between atoms: _542  and  _544
REMARK  231  A    between atoms: _544  and  _545
REMARK  232  A    between atoms: _548  and  _550
REMARK  233  A    between atoms: _550  and  _551
REMARK  234  A    between atoms: _550  and  _553
REMARK  235  A    between atoms: _553  and  _554
REMARK  236  A    between atoms: _557  and  _559
REMARK  237  A    between atoms: _559  and  _560
REMARK  238  A    between atoms: _559  and  _562
REMARK  239  A    between atoms: _562  and  _563
REMARK  240  A    between atoms: _569  and  _571
REMARK  241  A    between atoms: _571  and  _572
REMARK  242  A    between atoms: _574  and  _576
REMARK  243  A    between atoms: _576  and  _577
REMARK  244  A    between atoms: _576  and  _579
REMARK  245  A    between atoms: _579  and  _580
REMARK                            x       y       z     vdW  Elec       q    Type
REMARK                         _______ _______ _______ _____ _____    ______ ____
ROOT
ATOM      1  CA  GLU A   1     -35.185   1.232  16.022  0.00  0.00    +0.134 C 
ENDROOT
BRANCH   1   2
ATOM      2  N   GLU A   1     -35.700  -0.040  15.535  0.00  0.00    -0.239 NA
ATOM      3  H   GLU A   1     -35.458  -0.350  14.572  0.00  0.00    +0.142 HD
ENDBRANCH   1   2
BRANCH   1   4
ATOM      4  C   GLU A   1     -35.854   2.393  15.300  0.00  0.00    +0.224 C 
ATOM      5  O   GLU A   1     -36.661   2.186  14.395  0.00  0.00    -0.287 OA
ENDBRANCH   1   4
BRANCH   1   6
ATOM      6  CB  GLU A   1     -33.667   1.305  15.845  0.00  0.00    +0.037 C 
BRANCH   6   7
ATOM      7  CG  GLU A   1     -32.914   0.058  16.290  0.00  0.00    +0.116 C 
BRANCH   7   8
ATOM      8  CD  GLU A   1     -32.885  -0.125  17.798  0.00  0.00    +0.365 C 
ATOM      9  OE2 GLU A   1     -33.437   0.728  18.526  0.00  0.00    -0.246 OA
ATOM     10  OE1 GLU A   1     -32.299  -1.129  18.256  0.00  0.00    -0.246 OA
ENDBRANCH   7   8
ENDBRANCH   6   7
ENDBRANCH   1   6
TORSDOF 5
REMARK  Name = ../refined-set-2016/4rwj/4rwj_pocket.pdb
REMARK  245 active torsions:
REMARK  status: ('A' for Active; 'I' for Inactive)
REMARK    1  A    between atoms: _1  and  _3
REMARK    2  A    between atoms: _3  and  _4
REMARK    3  A    between atoms: _3  and  _6
REMARK    4  A    between atoms: _6  and  _7
REMARK    5  A    between atoms: _7  and  _8
REMARK    6  A    between atoms: _8  and  _9
REMARK    7  A    between atoms: _9  and  _10
REMARK    8  A    between atoms: _15  and  _16
REMARK    9  A    between atoms: _21  and  _23
REMARK   10  A    between atoms: _23  and  _24
REMARK   11  A    between atoms: _23  and  _26
REMARK   12  A    between atoms: _26  and  _27
REMARK   13  A    between atoms: _30  and  _32
REMARK   14  A    between atoms: _32  and  _33
REMARK   15  A    between atoms: _35  and  _37
REMARK   16  A    between atoms: _37  and  _38
REMARK   17  A    between atoms: _37  and  _40
REMARK   18  A    between atoms: _40  and  _41
REMARK   19  A    between atoms: _41  and  _42
REMARK   20  A    between atoms: _45  and  _47
REMARK   21  A    between atoms: _47  and  _48
REMARK   22  A    between atoms: _50  and  _52
REMARK   23  A    between atoms: _52  and  _53
REMARK   24  A    between atoms: _56  and  _58
REMARK   25  A    between atoms: _58  and  _59
REMARK   26  A    between atoms: _58  and  _61
REMARK   27  A    between atoms: _61  and  _62
REMARK   28  A    between atoms: _68  and  _70
REMARK   29  A    between atoms: _70  and  _71
REMARK   30  A    between atoms: _73  and  _75
REMARK   31  A    between atoms: _75  and  _76
REMARK   32  A    between atoms: _75  and  _78
REMARK   33  A    between atoms: _78  and  _79
REMARK   34  A    between atoms: _79  and  _80
REMARK   35  A    between atoms: _85  and  _87
REMARK   36  A    between atoms: _87  and  _88
REMARK   37  A    between atoms: _87  and  _90
REMARK   38  A    between atoms: _93  and  _95
REMARK   39  A    between atoms: _95  and  _96
REMARK   40  A    between atoms: _95  and  _98
REMARK   41  A    between atoms: _101  and  _103
REMARK   42  A    between atoms: _103  and  _104
REMARK   43  A    between atoms: _103  and  _106
REMARK   44  A    between atoms: _106  and  _107
REMARK   45  A    between atoms: _110  and  _112
REMARK   46  A    between atoms: _112  and  _113
REMARK   47  A    between atoms: _112  and  _115
REMARK   48  A    between atoms: _118  and  _120
REMARK   49  A    between atoms: _120  and  _121
REMARK   50  A    between atoms: _124  and  _126
REMARK   51  A    between atoms: _126  and  _127
REMARK   52  A    between atoms: _126  and  _129
REMARK   53  A    between atoms: _132  and  _134
REMARK   54  A    between atoms: _134  and  _135
REMARK   55  A    between atoms: _134  and  _137
REMARK   56  A    between atoms: _137  and  _138
REMARK   57  A    between atoms: _138  and  _139
REMARK   58  A    between atoms: _139  and  _140
REMARK   59  A    between atoms: _140  and  _141
REMARK   60  A    between atoms: _145  and  _147
REMARK   61  A    between atoms: _147  and  _148
REMARK   62  A    between atoms: _147  and  _150
REMARK   63  A    between atoms: _150  and  _151
REMARK   64  A    between atoms: _151  and  _152
REMARK   65  A    between atoms: _154  and  _156
REMARK   66  A    between atoms: _156  and  _157
REMARK   67  A    between atoms: _156  and  _159
REMARK   68  A    between atoms: _159  and  _160
REMARK   69  A    between atoms: _163  and  _165
REMARK   70  A    between atoms: _165  and  _166
REMARK   71  A    between atoms: _165  and  _168
REMARK   72  A    between atoms: _168  and  _169
REMARK   73  A    between atoms: _172  and  _174
REMARK   74  A    between atoms: _174  and  _175
REMARK   75  A    between atoms: _174  and  _177
REMARK   76  A    between atoms: _177  and  _178
REMARK   77  A    between atoms: _178  and  _179
REMARK   78  A    between atoms: _182  and  _184
REMARK   79  A    between atoms: _184  and  _185
REMARK   80  A    between atoms: _184  and  _187
REMARK   81  A    between atoms: _187  and  _188
REMARK   82  A    between atoms: _188  and  _189
REMARK   83  A    between atoms: _191  and  _193
REMARK   84  A    between atoms: _193  and  _194
REMARK   85  A    between atoms: _193  and  _196
REMARK   86  A    between atoms: _196  and  _197
REMARK   87  A    between atoms: _197  and  _198
REMARK   88  A    between atoms: _200  and  _202
REMARK   89  A    between atoms: _202  and  _203
REMARK   90  A    between atoms: _202  and  _205
REMARK   91  A    between atoms: _205  and  _206
REMARK   92  A    between atoms: _209  and  _211
REMARK   93  A    between atoms: _211  and  _212
REMARK   94  A    between atoms: _211  and  _214
REMARK   95  A    between atoms: _214  and  _215
REMARK   96  A    between atoms: _218  and  _220
REMARK   97  A    between atoms: _220  and  _221
REMARK   98  A    between atoms: _220  and  _223
REMARK   99  A    between atoms: _223  and  _224
REMARK  100  A    between atoms: _229  and  _231
REMARK  101  A    between atoms: _231  and  _232
REMARK  102  A    between atoms: _231  and  _234
REMARK  103  A    between atoms: _234  and  _235
REMARK  104  A    between atoms: _238  and  _240
REMARK  105  A    between atoms: _240  and  _241
REMARK  106  A    between atoms: _240  and  _243
REMARK  107  A    between atoms: _243  and  _244
REMARK  108  A    between atoms: _247  and  _249
REMARK  109  A    between atoms: _249  and  _250
REMARK  110  A    between atoms: _252  and  _254
REMARK  111  A    between atoms: _254  and  _255
REMARK  112  A    between atoms: _254  and  _257
REMARK  113  A    between atoms: _257  and  _258
REMARK  114  A    between atoms: _263  and  _264
REMARK  115  A    between atoms: _266  and  _268
REMARK  116  A    between atoms: _268  and  _269
REMARK  117  A    between atoms: _268  and  _271
REMARK  118  A    between atoms: _274  and  _276
REMARK  119  A    between atoms: _276  and  _277
REMARK  120  A    between atoms: _276  and  _279
REMARK  121  A    between atoms: _279  and  _280
REMARK  122  A    between atoms: _283  and  _285
REMARK  123  A    between atoms: _285  and  _286
REMARK  124  A    between atoms: _285  and  _288
REMARK  125  A    between atoms: _291  and  _293
REMARK  126  A    between atoms: _293  and  _294
REMARK  127  A    between atoms: _293  and  _296
REMARK  128  A    between atoms: _296  and  _297
REMARK  129  A    between atoms: _297  and  _298
REMARK  130  A    between atoms: _301  and  _303
REMARK  131  A    between atoms: _303  and  _304
REMARK  132  A    between atoms: _303  and  _306
REMARK  133  A    between atoms: _306  and  _307
REMARK  134  A    between atoms: _312  and  _313
REMARK  135  A    between atoms: _315  and  _317
REMARK  136  A    between atoms: _317  and  _318
REMARK  137  A    between atoms: _321  and  _323
REMARK  138  A    between atoms: _323  and  _324
REMARK  139  A    between atoms: _323  and  _326
REMARK  140  A    between atoms: _326  and  _327
REMARK  141  A    between atoms: _329  and  _331
REMARK  142  A    between atoms: _331  and  _332
REMARK  143  A    between atoms: _331  and  _334
REMARK  144  A    between atoms: _334  and  _335
REMARK  145  A    between atoms: _335  and  _336
REMARK  146  A    between atoms: _336  and  _337
REMARK  147  A    between atoms: _337  and  _338
REMARK  148  A    between atoms: _342  and  _344
REMARK  149  A    between atoms: _344  and  _345
REMARK  150  A    between atoms: _347  and  _349
REMARK  151  A    between atoms: _349  and  _350
REMARK  152  A    between atoms: _349  and  _352
REMARK  153  A    between atoms: _352  and  _353
REMARK  154  A    between atoms: _358  and  _360
REMARK  155  A    between atoms: _360  and  _361
REMARK  156  A    between atoms: _360  and  _363
REMARK  157  A    between atoms: _363  and  _364
REMARK  158  A    between atoms: _364  and  _365
REMARK  159  A    between atoms: _368  and  _370
REMARK  160  A    between atoms: _370  and  _371
REMARK  161  A    between atoms: _370  and  _373
REMARK  162  A    between atoms: _373  and  _374
REMARK  163  A    between atoms: _379  and  _380
REMARK  164  A    between atoms: _382  and  _384
REMARK  165  A    between atoms: _384  and  _385
REMARK  166  A    between atoms: _388  and  _390
REMARK  167  A    between atoms: _390  and  _391
REMARK  168  A    between atoms: _390  and  _393
REMARK  169  A    between atoms: _393  and  _394
REMARK  170  A    between atoms: _394  and  _395
REMARK  171  A    between atoms: _395  and  _396
REMARK  172  A    between atoms: _405  and  _407
REMARK  173  A    between atoms: _407  and  _408
REMARK  174  A    between atoms: _407  and  _410
REMARK  175  A    between atoms: _410  and  _411
REMARK  176  A    between atoms: _413  and  _415
REMARK  177  A    between atoms: _415  and  _416
REMARK  178  A    between atoms: _415  and  _418
REMARK  179  A    between atoms: _418  and  _419
REMARK  180  A    between atoms: _424  and  _426
REMARK  181  A    between atoms: _426  and  _427
REMARK  182  A    between atoms: _426  and  _429
REMARK  183  A    between atoms: _429  and  _430
REMARK  184  A    between atoms: _435  and  _437
REMARK  185  A    between atoms: _437  and  _438
REMARK  186  A    between atoms: _437  and  _440
REMARK  187  A    between atoms: _440  and  _441
REMARK  188  A    between atoms: _441  and  _442
REMARK  189  A    between atoms: _445  and  _447
REMARK  190  A    between atoms: _447  and  _448
REMARK  191  A    between atoms: _447  and  _450
REMARK  192  A    between atoms: _450  and  _451
REMARK  193  A    between atoms: _456  and  _458
REMARK  194  A    between atoms: _458  and  _459
REMARK  195  A    between atoms: _458  and  _461
REMARK  196  A    between atoms: _461  and  _462
REMARK  197  A    between atoms: _462  and  _463
REMARK  198  A    between atoms: _463  and  _464
REMARK  199  A    between atoms: _473  and  _475
REMARK  200  A    between atoms: _475  and  _476
REMARK  201  A    between atoms: _475  and  _478
REMARK  202  A    between atoms: _478  and  _479
REMARK  203  A    between atoms: _484  and  _486
REMARK  204  A    between atoms: _486  and  _487
REMARK  205  A    between atoms: _486  and  _489
REMARK  206  A    between atoms: _489  and  _490
REMARK  207  A    between atoms: _493  and  _495
REMARK  208  A    between atoms: _495  and  _496
REMARK  209  A    between atoms: _495  and  _498
REMARK  210  A    between atoms: _501  and  _503
REMARK  211  A    between atoms: _503  and  _504
REMARK  212  A    between atoms: _503  and  _506
REMARK  213  A    between atoms: _506  and  _507
REMARK  214  A    between atoms: _510  and  _512
REMARK  215  A    between atoms: _512  and  _513
REMARK  216  A    between atoms: _512  and  _515
REMARK  217  A    between atoms: _515  and  _516
REMARK  218  A    between atoms: _516  and  _517
REMARK  219  A    between atoms: _520  and  _522
REMARK  220  A    between atoms: _522  and  _523
REMARK  221  A    between atoms: _522  and  _525
REMARK  222  A    between atoms: _525  and  _526
REMARK  223  A    between atoms: _526  and  _527
REMARK  224  A    between atoms: _527  and  _528
REMARK  225  A    between atoms: _528  and  _529
REMARK  226  A    between atoms: _533  and  _535
REMARK  227  A    between atoms: _535  and  _536
REMARK  228  A    between atoms: _535  and  _538
REMARK  229  A    between atoms: _538  and  _539
REMARK  230  A    between atoms: _542  and  _544
REMARK  231  A    between atoms: _544  and  _545
REMARK  232  A    between atoms: _548  and  _550
REMARK  233  A    between atoms: _550  and  _551
REMARK  234  A    between atoms: _550  and  _553
REMARK  235  A    between atoms: _553  and  _554
REMARK  236  A    between atoms: _557  and  _559
REMARK  237  A    between atoms: _559  and  _560
REMARK  238  A    between atoms: _559  and  _562
REMARK  239  A    between atoms: _562  and  _563
REMARK  240  A    between atoms: _569  and  _571
REMARK  241  A    between atoms: _571  and  _572
REMARK  242  A    between atoms: _574  and  _576
REMARK  243  A    between atoms: _576  and  _577
REMARK  244  A    between atoms: _576  and  _579
REMARK  245  A    between atoms: _579  and  _580
REMARK                            x       y       z     vdW  Elec       q    Type
REMARK                         _______ _______ _______ _____ _____    ______ ____
ROOT
ATOM      1  CB  HIS A   1     -13.722  -3.326  -2.210  0.00  0.00    +0.072 C 
ENDROOT
BRANCH   1   2
ATOM      2  CG  HIS A   1     -14.322  -3.879  -0.954  0.00  0.00    +0.082 A 
ATOM      3  CD2 HIS A   1     -14.349  -3.391   0.309  0.00  0.00    +0.115 A 
ATOM      4  NE2 HIS A   1     -15.038  -4.298   1.077  0.00  0.00    -0.221 NA
ATOM      5  CE1 HIS A   1     -15.422  -5.304   0.315  0.00  0.00    +0.199 A 
ATOM      6  ND1 HIS A   1     -15.003  -5.075  -0.918  0.00  0.00    -0.227 NA
ENDBRANCH   1   2
BRANCH   1   7
ATOM      7  CA  HIS A   1     -12.538  -4.137  -2.742  0.00  0.00    +0.139 C 
BRANCH   7   8
ATOM      8  N   HIS A   1     -11.810  -3.356  -3.739  0.00  0.00    -0.239 NA
ATOM      9  H   HIS A   1     -12.285  -2.548  -4.190  0.00  0.00    +0.142 HD
ENDBRANCH   7   8
BRANCH   7  10
ATOM     10  C   HIS A   1     -13.026  -5.477  -3.286  0.00  0.00    +0.224 C 
ATOM     11  O   HIS A   1     -12.923  -6.504  -2.609  0.00  0.00    -0.287 OA
ENDBRANCH   7  10
ENDBRANCH   1   7
TORSDOF 4
REMARK  Name = ../refined-set-2016/4rwj/4rwj_pocket.pdb
REMARK  245 active torsions:
REMARK  status: ('A' for Active; 'I' for Inactive)
REMARK    1  A    between atoms: _1  and  _3
REMARK    2  A    between atoms: _3  and  _4
REMARK    3  A    between atoms: _3  and  _6
REMARK    4  A    between atoms: _6  and  _7
REMARK    5  A    between atoms: _7  and  _8
REMARK    6  A    between atoms: _8  and  _9
REMARK    7  A    between atoms: _9  and  _10
REMARK    8  A    between atoms: _15  and  _16
REMARK    9  A    between atoms: _21  and  _23
REMARK   10  A    between atoms: _23  and  _24
REMARK   11  A    between atoms: _23  and  _26
REMARK   12  A    between atoms: _26  and  _27
REMARK   13  A    between atoms: _30  and  _32
REMARK   14  A    between atoms: _32  and  _33
REMARK   15  A    between atoms: _35  and  _37
REMARK   16  A    between atoms: _37  and  _38
REMARK   17  A    between atoms: _37  and  _40
REMARK   18  A    between atoms: _40  and  _41
REMARK   19  A    between atoms: _41  and  _42
REMARK   20  A    between atoms: _45  and  _47
REMARK   21  A    between atoms: _47  and  _48
REMARK   22  A    between atoms: _50  and  _52
REMARK   23  A    between atoms: _52  and  _53
REMARK   24  A    between atoms: _56  and  _58
REMARK   25  A    between atoms: _58  and  _59
REMARK   26  A    between atoms: _58  and  _61
REMARK   27  A    between atoms: _61  and  _62
REMARK   28  A    between atoms: _68  and  _70
REMARK   29  A    between atoms: _70  and  _71
REMARK   30  A    between atoms: _73  and  _75
REMARK   31  A    between atoms: _75  and  _76
REMARK   32  A    between atoms: _75  and  _78
REMARK   33  A    between atoms: _78  and  _79
REMARK   34  A    between atoms: _79  and  _80
REMARK   35  A    between atoms: _85  and  _87
REMARK   36  A    between atoms: _87  and  _88
REMARK   37  A    between atoms: _87  and  _90
REMARK   38  A    between atoms: _93  and  _95
REMARK   39  A    between atoms: _95  and  _96
REMARK   40  A    between atoms: _95  and  _98
REMARK   41  A    between atoms: _101  and  _103
REMARK   42  A    between atoms: _103  and  _104
REMARK   43  A    between atoms: _103  and  _106
REMARK   44  A    between atoms: _106  and  _107
REMARK   45  A    between atoms: _110  and  _112
REMARK   46  A    between atoms: _112  and  _113
REMARK   47  A    between atoms: _112  and  _115
REMARK   48  A    between atoms: _118  and  _120
REMARK   49  A    between atoms: _120  and  _121
REMARK   50  A    between atoms: _124  and  _126
REMARK   51  A    between atoms: _126  and  _127
REMARK   52  A    between atoms: _126  and  _129
REMARK   53  A    between atoms: _132  and  _134
REMARK   54  A    between atoms: _134  and  _135
REMARK   55  A    between atoms: _134  and  _137
REMARK   56  A    between atoms: _137  and  _138
REMARK   57  A    between atoms: _138  and  _139
REMARK   58  A    between atoms: _139  and  _140
REMARK   59  A    between atoms: _140  and  _141
REMARK   60  A    between atoms: _145  and  _147
REMARK   61  A    between atoms: _147  and  _148
REMARK   62  A    between atoms: _147  and  _150
REMARK   63  A    between atoms: _150  and  _151
REMARK   64  A    between atoms: _151  and  _152
REMARK   65  A    between atoms: _154  and  _156
REMARK   66  A    between atoms: _156  and  _157
REMARK   67  A    between atoms: _156  and  _159
REMARK   68  A    between atoms: _159  and  _160
REMARK   69  A    between atoms: _163  and  _165
REMARK   70  A    between atoms: _165  and  _166
REMARK   71  A    between atoms: _165  and  _168
REMARK   72  A    between atoms: _168  and  _169
REMARK   73  A    between atoms: _172  and  _174
REMARK   74  A    between atoms: _174  and  _175
REMARK   75  A    between atoms: _174  and  _177
REMARK   76  A    between atoms: _177  and  _178
REMARK   77  A    between atoms: _178  and  _179
REMARK   78  A    between atoms: _182  and  _184
REMARK   79  A    between atoms: _184  and  _185
REMARK   80  A    between atoms: _184  and  _187
REMARK   81  A    between atoms: _187  and  _188
REMARK   82  A    between atoms: _188  and  _189
REMARK   83  A    between atoms: _191  and  _193
REMARK   84  A    between atoms: _193  and  _194
REMARK   85  A    between atoms: _193  and  _196
REMARK   86  A    between atoms: _196  and  _197
REMARK   87  A    between atoms: _197  and  _198
REMARK   88  A    between atoms: _200  and  _202
REMARK   89  A    between atoms: _202  and  _203
REMARK   90  A    between atoms: _202  and  _205
REMARK   91  A    between atoms: _205  and  _206
REMARK   92  A    between atoms: _209  and  _211
REMARK   93  A    between atoms: _211  and  _212
REMARK   94  A    between atoms: _211  and  _214
REMARK   95  A    between atoms: _214  and  _215
REMARK   96  A    between atoms: _218  and  _220
REMARK   97  A    between atoms: _220  and  _221
REMARK   98  A    between atoms: _220  and  _223
REMARK   99  A    between atoms: _223  and  _224
REMARK  100  A    between atoms: _229  and  _231
REMARK  101  A    between atoms: _231  and  _232
REMARK  102  A    between atoms: _231  and  _234
REMARK  103  A    between atoms: _234  and  _235
REMARK  104  A    between atoms: _238  and  _240
REMARK  105  A    between atoms: _240  and  _241
REMARK  106  A    between atoms: _240  and  _243
REMARK  107  A    between atoms: _243  and  _244
REMARK  108  A    between atoms: _247  and  _249
REMARK  109  A    between atoms: _249  and  _250
REMARK  110  A    between atoms: _252  and  _254
REMARK  111  A    between atoms: _254  and  _255
REMARK  112  A    between atoms: _254  and  _257
REMARK  113  A    between atoms: _257  and  _258
REMARK  114  A    between atoms: _263  and  _264
REMARK  115  A    between atoms: _266  and  _268
REMARK  116  A    between atoms: _268  and  _269
REMARK  117  A    between atoms: _268  and  _271
REMARK  118  A    between atoms: _274  and  _276
REMARK  119  A    between atoms: _276  and  _277
REMARK  120  A    between atoms: _276  and  _279
REMARK  121  A    between atoms: _279  and  _280
REMARK  122  A    between atoms: _283  and  _285
REMARK  123  A    between atoms: _285  and  _286
REMARK  124  A    between atoms: _285  and  _288
REMARK  125  A    between atoms: _291  and  _293
REMARK  126  A    between atoms: _293  and  _294
REMARK  127  A    between atoms: _293  and  _296
REMARK  128  A    between atoms: _296  and  _297
REMARK  129  A    between atoms: _297  and  _298
REMARK  130  A    between atoms: _301  and  _303
REMARK  131  A    between atoms: _303  and  _304
REMARK  132  A    between atoms: _303  and  _306
REMARK  133  A    between atoms: _306  and  _307
REMARK  134  A    between atoms: _312  and  _313
REMARK  135  A    between atoms: _315  and  _317
REMARK  136  A    between atoms: _317  and  _318
REMARK  137  A    between atoms: _321  and  _323
REMARK  138  A    between atoms: _323  and  _324
REMARK  139  A    between atoms: _323  and  _326
REMARK  140  A    between atoms: _326  and  _327
REMARK  141  A    between atoms: _329  and  _331
REMARK  142  A    between atoms: _331  and  _332
REMARK  143  A    between atoms: _331  and  _334
REMARK  144  A    between atoms: _334  and  _335
REMARK  145  A    between atoms: _335  and  _336
REMARK  146  A    between atoms: _336  and  _337
REMARK  147  A    between atoms: _337  and  _338
REMARK  148  A    between atoms: _342  and  _344
REMARK  149  A    between atoms: _344  and  _345
REMARK  150  A    between atoms: _347  and  _349
REMARK  151  A    between atoms: _349  and  _350
REMARK  152  A    between atoms: _349  and  _352
REMARK  153  A    between atoms: _352  and  _353
REMARK  154  A    between atoms: _358  and  _360
REMARK  155  A    between atoms: _360  and  _361
REMARK  156  A    between atoms: _360  and  _363
REMARK  157  A    between atoms: _363  and  _364
REMARK  158  A    between atoms: _364  and  _365
REMARK  159  A    between atoms: _368  and  _370
REMARK  160  A    between atoms: _370  and  _371
REMARK  161  A    between atoms: _370  and  _373
REMARK  162  A    between atoms: _373  and  _374
REMARK  163  A    between atoms: _379  and  _380
REMARK  164  A    between atoms: _382  and  _384
REMARK  165  A    between atoms: _384  and  _385
REMARK  166  A    between atoms: _388  and  _390
REMARK  167  A    between atoms: _390  and  _391
REMARK  168  A    between atoms: _390  and  _393
REMARK  169  A    between atoms: _393  and  _394
REMARK  170  A    between atoms: _394  and  _395
REMARK  171  A    between atoms: _395  and  _396
REMARK  172  A    between atoms: _405  and  _407
REMARK  173  A    between atoms: _407  and  _408
REMARK  174  A    between atoms: _407  and  _410
REMARK  175  A    between atoms: _410  and  _411
REMARK  176  A    between atoms: _413  and  _415
REMARK  177  A    between atoms: _415  and  _416
REMARK  178  A    between atoms: _415  and  _418
REMARK  179  A    between atoms: _418  and  _419
REMARK  180  A    between atoms: _424  and  _426
REMARK  181  A    between atoms: _426  and  _427
REMARK  182  A    between atoms: _426  and  _429
REMARK  183  A    between atoms: _429  and  _430
REMARK  184  A    between atoms: _435  and  _437
REMARK  185  A    between atoms: _437  and  _438
REMARK  186  A    between atoms: _437  and  _440
REMARK  187  A    between atoms: _440  and  _441
REMARK  188  A    between atoms: _441  and  _442
REMARK  189  A    between atoms: _445  and  _447
REMARK  190  A    between atoms: _447  and  _448
REMARK  191  A    between atoms: _447  and  _450
REMARK  192  A    between atoms: _450  and  _451
REMARK  193  A    between atoms: _456  and  _458
REMARK  194  A    between atoms: _458  and  _459
REMARK  195  A    between atoms: _458  and  _461
REMARK  196  A    between atoms: _461  and  _462
REMARK  197  A    between atoms: _462  and  _463
REMARK  198  A    between atoms: _463  and  _464
REMARK  199  A    between atoms: _473  and  _475
REMARK  200  A    between atoms: _475  and  _476
REMARK  201  A    between atoms: _475  and  _478
REMARK  202  A    between atoms: _478  and  _479
REMARK  203  A    between atoms: _484  and  _486
REMARK  204  A    between atoms: _486  and  _487
REMARK  205  A    between atoms: _486  and  _489
REMARK  206  A    between atoms: _489  and  _490
REMARK  207  A    between atoms: _493  and  _495
REMARK  208  A    between atoms: _495  and  _496
REMARK  209  A    between atoms: _495  and  _498
REMARK  210  A    between atoms: _501  and  _503
REMARK  211  A    between atoms: _503  and  _504
REMARK  212  A    between atoms: _503  and  _506
REMARK  213  A    between atoms: _506  and  _507
REMARK  214  A    between atoms: _510  and  _512
REMARK  215  A    between atoms: _512  and  _513
REMARK  216  A    between atoms: _512  and  _515
REMARK  217  A    between atoms: _515  and  _516
REMARK  218  A    between atoms: _516  and  _517
REMARK  219  A    between atoms: _520  and  _522
REMARK  220  A    between atoms: _522  and  _523
REMARK  221  A    between atoms: _522  and  _525
REMARK  222  A    between atoms: _525  and  _526
REMARK  223  A    between atoms: _526  and  _527
REMARK  224  A    between atoms: _527  and  _528
REMARK  225  A    between atoms: _528  and  _529
REMARK  226  A    between atoms: _533  and  _535
REMARK  227  A    between atoms: _535  and  _536
REMARK  228  A    between atoms: _535  and  _538
REMARK  229  A    between atoms: _538  and  _539
REMARK  230  A    between atoms: _542  and  _544
REMARK  231  A    between atoms: _544  and  _545
REMARK  232  A    between atoms: _548  and  _550
REMARK  233  A    between atoms: _550  and  _551
REMARK  234  A    between atoms: _550  and  _553
REMARK  235  A    between atoms: _553  and  _554
REMARK  236  A    between atoms: _557  and  _559
REMARK  237  A    between atoms: _559  and  _560
REMARK  238  A    between atoms: _559  and  _562
REMARK  239  A    between atoms: _562  and  _563
REMARK  240  A    between atoms: _569  and  _571
REMARK  241  A    between atoms: _571  and  _572
REMARK  242  A    between atoms: _574  and  _576
REMARK  243  A    between atoms: _576  and  _577
REMARK  244  A    between atoms: _576  and  _579
REMARK  245  A    between atoms: _579  and  _580
REMARK                            x       y       z     vdW  Elec       q    Type
REMARK                         _______ _______ _______ _____ _____    ______ ____
ROOT
ATOM      1  CA  ARG A   1     -23.233  -6.596   4.178  0.00  0.00    +0.145 C 
ENDROOT
BRANCH   1   2
ATOM      2  C   ARG A   1     -21.777  -6.394   4.596  0.00  0.00    +0.238 C 
ATOM      3  O   ARG A   1     -21.356  -6.865   5.652  0.00  0.00    -0.274 OA
ATOM      4  N   ASN A   2     -21.012  -5.707   3.751  0.00  0.00    -0.298 N 
ATOM      5  H   ASN A   2     -21.432  -5.349   2.869  0.00  0.00    +0.150 HD
BRANCH   4   6
ATOM      6  CA  ASN A   2     -19.605  -5.440   4.022  0.00  0.00    +0.146 C 
BRANCH   6   7
ATOM      7  C   ASN A   2     -19.369  -4.003   4.466  0.00  0.00    +0.227 C 
ATOM      8  O   ASN A   2     -18.262  -3.480   4.356  0.00  0.00    -0.286 OA
ENDBRANCH   6   7
BRANCH   6   9
ATOM      9  CB  ASN A   2     -18.753  -5.757   2.792  0.00  0.00    +0.112 C 
BRANCH   9  10
ATOM     10  CG  ASN A   2     -18.535  -7.245   2.604  0.00  0.00    +0.222 C 
ATOM     11  OD1 ASN A   2     -18.381  -7.986   3.575  0.00  0.00    -0.275 OA
ATOM     12  ND2 ASN A   2     -18.524  -7.692   1.354  0.00  0.00    -0.329 N 
ATOM     13 HD21 ASN A   2     -18.381  -8.705   1.165  0.00  0.00    +0.145 HD
ATOM     14 HD22 ASN A   2     -18.658  -7.029   0.564  0.00  0.00    +0.145 HD
ENDBRANCH   9  10
ENDBRANCH   6   9
ENDBRANCH   4   6
ENDBRANCH   1   2
BRANCH   1  15
ATOM     15  N   ARG A   1     -23.645  -5.597   3.197  0.00  0.00    -0.238 NA
ATOM     16  H   ARG A   1     -23.840  -5.897   2.220  0.00  0.00    +0.142 HD
ENDBRANCH   1  15
BRANCH   1  17
ATOM     17  CB  ARG A   1     -23.413  -8.012   3.625  0.00  0.00    +0.030 C 
BRANCH  17  18
ATOM     18  CG  ARG A   1     -22.471  -8.342   2.474  0.00  0.00    +0.045 C 
BRANCH  18  19
ATOM     19  CD  ARG A   1     -22.647  -9.768   1.982  0.00  0.00    +0.174 C 
BRANCH  19  20
ATOM     20  NE  ARG A   1     -21.965  -9.986   0.709  0.00  0.00    -0.265 N 
ATOM     21  HE  ARG A   1     -20.974 -10.299   0.735  0.00  0.00    +0.259 HD
ATOM     22  CZ  ARG A   1     -22.532  -9.809  -0.480  0.00  0.00    +0.342 C 
ATOM     23  NH2 ARG A   1     -23.796  -9.418  -0.560  0.00  0.00    -0.292 N 
ATOM     24 HH21 ARG A   1     -24.344  -9.250   0.308  0.00  0.00    +0.255 HD
ATOM     25 HH22 ARG A   1     -24.240  -9.280  -1.490  0.00  0.00    +0.255 HD
ATOM     26  NH1 ARG A   1     -21.837 -10.027  -1.587  0.00  0.00    -0.292 N 
ATOM     27 HH11 ARG A   1     -20.846 -10.337  -1.526  0.00  0.00    +0.255 HD
ATOM     28 HH12 ARG A   1     -22.282  -9.888  -2.516  0.00  0.00    +0.255 HD
ENDBRANCH  19  20
ENDBRANCH  18  19
ENDBRANCH  17  18
ENDBRANCH   1  17
TORSDOF 10
REMARK  Name = ../refined-set-2016/4rwj/4rwj_pocket.pdb
REMARK  245 active torsions:
REMARK  status: ('A' for Active; 'I' for Inactive)
REMARK    1  A    between atoms: _1  and  _3
REMARK    2  A    between atoms: _3  and  _4
REMARK    3  A    between atoms: _3  and  _6
REMARK    4  A    between atoms: _6  and  _7
REMARK    5  A    between atoms: _7  and  _8
REMARK    6  A    between atoms: _8  and  _9
REMARK    7  A    between atoms: _9  and  _10
REMARK    8  A    between atoms: _15  and  _16
REMARK    9  A    between atoms: _21  and  _23
REMARK   10  A    between atoms: _23  and  _24
REMARK   11  A    between atoms: _23  and  _26
REMARK   12  A    between atoms: _26  and  _27
REMARK   13  A    between atoms: _30  and  _32
REMARK   14  A    between atoms: _32  and  _33
REMARK   15  A    between atoms: _35  and  _37
REMARK   16  A    between atoms: _37  and  _38
REMARK   17  A    between atoms: _37  and  _40
REMARK   18  A    between atoms: _40  and  _41
REMARK   19  A    between atoms: _41  and  _42
REMARK   20  A    between atoms: _45  and  _47
REMARK   21  A    between atoms: _47  and  _48
REMARK   22  A    between atoms: _50  and  _52
REMARK   23  A    between atoms: _52  and  _53
REMARK   24  A    between atoms: _56  and  _58
REMARK   25  A    between atoms: _58  and  _59
REMARK   26  A    between atoms: _58  and  _61
REMARK   27  A    between atoms: _61  and  _62
REMARK   28  A    between atoms: _68  and  _70
REMARK   29  A    between atoms: _70  and  _71
REMARK   30  A    between atoms: _73  and  _75
REMARK   31  A    between atoms: _75  and  _76
REMARK   32  A    between atoms: _75  and  _78
REMARK   33  A    between atoms: _78  and  _79
REMARK   34  A    between atoms: _79  and  _80
REMARK   35  A    between atoms: _85  and  _87
REMARK   36  A    between atoms: _87  and  _88
REMARK   37  A    between atoms: _87  and  _90
REMARK   38  A    between atoms: _93  and  _95
REMARK   39  A    between atoms: _95  and  _96
REMARK   40  A    between atoms: _95  and  _98
REMARK   41  A    between atoms: _101  and  _103
REMARK   42  A    between atoms: _103  and  _104
REMARK   43  A    between atoms: _103  and  _106
REMARK   44  A    between atoms: _106  and  _107
REMARK   45  A    between atoms: _110  and  _112
REMARK   46  A    between atoms: _112  and  _113
REMARK   47  A    between atoms: _112  and  _115
REMARK   48  A    between atoms: _118  and  _120
REMARK   49  A    between atoms: _120  and  _121
REMARK   50  A    between atoms: _124  and  _126
REMARK   51  A    between atoms: _126  and  _127
REMARK   52  A    between atoms: _126  and  _129
REMARK   53  A    between atoms: _132  and  _134
REMARK   54  A    between atoms: _134  and  _135
REMARK   55  A    between atoms: _134  and  _137
REMARK   56  A    between atoms: _137  and  _138
REMARK   57  A    between atoms: _138  and  _139
REMARK   58  A    between atoms: _139  and  _140
REMARK   59  A    between atoms: _140  and  _141
REMARK   60  A    between atoms: _145  and  _147
REMARK   61  A    between atoms: _147  and  _148
REMARK   62  A    between atoms: _147  and  _150
REMARK   63  A    between atoms: _150  and  _151
REMARK   64  A    between atoms: _151  and  _152
REMARK   65  A    between atoms: _154  and  _156
REMARK   66  A    between atoms: _156  and  _157
REMARK   67  A    between atoms: _156  and  _159
REMARK   68  A    between atoms: _159  and  _160
REMARK   69  A    between atoms: _163  and  _165
REMARK   70  A    between atoms: _165  and  _166
REMARK   71  A    between atoms: _165  and  _168
REMARK   72  A    between atoms: _168  and  _169
REMARK   73  A    between atoms: _172  and  _174
REMARK   74  A    between atoms: _174  and  _175
REMARK   75  A    between atoms: _174  and  _177
REMARK   76  A    between atoms: _177  and  _178
REMARK   77  A    between atoms: _178  and  _179
REMARK   78  A    between atoms: _182  and  _184
REMARK   79  A    between atoms: _184  and  _185
REMARK   80  A    between atoms: _184  and  _187
REMARK   81  A    between atoms: _187  and  _188
REMARK   82  A    between atoms: _188  and  _189
REMARK   83  A    between atoms: _191  and  _193
REMARK   84  A    between atoms: _193  and  _194
REMARK   85  A    between atoms: _193  and  _196
REMARK   86  A    between atoms: _196  and  _197
REMARK   87  A    between atoms: _197  and  _198
REMARK   88  A    between atoms: _200  and  _202
REMARK   89  A    between atoms: _202  and  _203
REMARK   90  A    between atoms: _202  and  _205
REMARK   91  A    between atoms: _205  and  _206
REMARK   92  A    between atoms: _209  and  _211
REMARK   93  A    between atoms: _211  and  _212
REMARK   94  A    between atoms: _211  and  _214
REMARK   95  A    between atoms: _214  and  _215
REMARK   96  A    between atoms: _218  and  _220
REMARK   97  A    between atoms: _220  and  _221
REMARK   98  A    between atoms: _220  and  _223
REMARK   99  A    between atoms: _223  and  _224
REMARK  100  A    between atoms: _229  and  _231
REMARK  101  A    between atoms: _231  and  _232
REMARK  102  A    between atoms: _231  and  _234
REMARK  103  A    between atoms: _234  and  _235
REMARK  104  A    between atoms: _238  and  _240
REMARK  105  A    between atoms: _240  and  _241
REMARK  106  A    between atoms: _240  and  _243
REMARK  107  A    between atoms: _243  and  _244
REMARK  108  A    between atoms: _247  and  _249
REMARK  109  A    between atoms: _249  and  _250
REMARK  110  A    between atoms: _252  and  _254
REMARK  111  A    between atoms: _254  and  _255
REMARK  112  A    between atoms: _254  and  _257
REMARK  113  A    between atoms: _257  and  _258
REMARK  114  A    between atoms: _263  and  _264
REMARK  115  A    between atoms: _266  and  _268
REMARK  116  A    between atoms: _268  and  _269
REMARK  117  A    between atoms: _268  and  _271
REMARK  118  A    between atoms: _274  and  _276
REMARK  119  A    between atoms: _276  and  _277
REMARK  120  A    between atoms: _276  and  _279
REMARK  121  A    between atoms: _279  and  _280
REMARK  122  A    between atoms: _283  and  _285
REMARK  123  A    between atoms: _285  and  _286
REMARK  124  A    between atoms: _285  and  _288
REMARK  125  A    between atoms: _291  and  _293
REMARK  126  A    between atoms: _293  and  _294
REMARK  127  A    between atoms: _293  and  _296
REMARK  128  A    between atoms: _296  and  _297
REMARK  129  A    between atoms: _297  and  _298
REMARK  130  A    between atoms: _301  and  _303
REMARK  131  A    between atoms: _303  and  _304
REMARK  132  A    between atoms: _303  and  _306
REMARK  133  A    between atoms: _306  and  _307
REMARK  134  A    between atoms: _312  and  _313
REMARK  135  A    between atoms: _315  and  _317
REMARK  136  A    between atoms: _317  and  _318
REMARK  137  A    between atoms: _321  and  _323
REMARK  138  A    between atoms: _323  and  _324
REMARK  139  A    between atoms: _323  and  _326
REMARK  140  A    between atoms: _326  and  _327
REMARK  141  A    between atoms: _329  and  _331
REMARK  142  A    between atoms: _331  and  _332
REMARK  143  A    between atoms: _331  and  _334
REMARK  144  A    between atoms: _334  and  _335
REMARK  145  A    between atoms: _335  and  _336
REMARK  146  A    between atoms: _336  and  _337
REMARK  147  A    between atoms: _337  and  _338
REMARK  148  A    between atoms: _342  and  _344
REMARK  149  A    between atoms: _344  and  _345
REMARK  150  A    between atoms: _347  and  _349
REMARK  151  A    between atoms: _349  and  _350
REMARK  152  A    between atoms: _349  and  _352
REMARK  153  A    between atoms: _352  and  _353
REMARK  154  A    between atoms: _358  and  _360
REMARK  155  A    between atoms: _360  and  _361
REMARK  156  A    between atoms: _360  and  _363
REMARK  157  A    between atoms: _363  and  _364
REMARK  158  A    between atoms: _364  and  _365
REMARK  159  A    between atoms: _368  and  _370
REMARK  160  A    between atoms: _370  and  _371
REMARK  161  A    between atoms: _370  and  _373
REMARK  162  A    between atoms: _373  and  _374
REMARK  163  A    between atoms: _379  and  _380
REMARK  164  A    between atoms: _382  and  _384
REMARK  165  A    between atoms: _384  and  _385
REMARK  166  A    between atoms: _388  and  _390
REMARK  167  A    between atoms: _390  and  _391
REMARK  168  A    between atoms: _390  and  _393
REMARK  169  A    between atoms: _393  and  _394
REMARK  170  A    between atoms: _394  and  _395
REMARK  171  A    between atoms: _395  and  _396
REMARK  172  A    between atoms: _405  and  _407
REMARK  173  A    between atoms: _407  and  _408
REMARK  174  A    between atoms: _407  and  _410
REMARK  175  A    between atoms: _410  and  _411
REMARK  176  A    between atoms: _413  and  _415
REMARK  177  A    between atoms: _415  and  _416
REMARK  178  A    between atoms: _415  and  _418
REMARK  179  A    between atoms: _418  and  _419
REMARK  180  A    between atoms: _424  and  _426
REMARK  181  A    between atoms: _426  and  _427
REMARK  182  A    between atoms: _426  and  _429
REMARK  183  A    between atoms: _429  and  _430
REMARK  184  A    between atoms: _435  and  _437
REMARK  185  A    between atoms: _437  and  _438
REMARK  186  A    between atoms: _437  and  _440
REMARK  187  A    between atoms: _440  and  _441
REMARK  188  A    between atoms: _441  and  _442
REMARK  189  A    between atoms: _445  and  _447
REMARK  190  A    between atoms: _447  and  _448
REMARK  191  A    between atoms: _447  and  _450
REMARK  192  A    between atoms: _450  and  _451
REMARK  193  A    between atoms: _456  and  _458
REMARK  194  A    between atoms: _458  and  _459
REMARK  195  A    between atoms: _458  and  _461
REMARK  196  A    between atoms: _461  and  _462
REMARK  197  A    between atoms: _462  and  _463
REMARK  198  A    between atoms: _463  and  _464
REMARK  199  A    between atoms: _473  and  _475
REMARK  200  A    between atoms: _475  and  _476
REMARK  201  A    between atoms: _475  and  _478
REMARK  202  A    between atoms: _478  and  _479
REMARK  203  A    between atoms: _484  and  _486
REMARK  204  A    between atoms: _486  and  _487
REMARK  205  A    between atoms: _486  and  _489
REMARK  206  A    between atoms: _489  and  _490
REMARK  207  A    between atoms: _493  and  _495
REMARK  208  A    between atoms: _495  and  _496
REMARK  209  A    between atoms: _495  and  _498
REMARK  210  A    between atoms: _501  and  _503
REMARK  211  A    between atoms: _503  and  _504
REMARK  212  A    between atoms: _503  and  _506
REMARK  213  A    between atoms: _506  and  _507
REMARK  214  A    between atoms: _510  and  _512
REMARK  215  A    between atoms: _512  and  _513
REMARK  216  A    between atoms: _512  and  _515
REMARK  217  A    between atoms: _515  and  _516
REMARK  218  A    between atoms: _516  and  _517
REMARK  219  A    between atoms: _520  and  _522
REMARK  220  A    between atoms: _522  and  _523
REMARK  221  A    between atoms: _522  and  _525
REMARK  222  A    between atoms: _525  and  _526
REMARK  223  A    between atoms: _526  and  _527
REMARK  224  A    between atoms: _527  and  _528
REMARK  225  A    between atoms: _528  and  _529
REMARK  226  A    between atoms: _533  and  _535
REMARK  227  A    between atoms: _535  and  _536
REMARK  228  A    between atoms: _535  and  _538
REMARK  229  A    between atoms: _538  and  _539
REMARK  230  A    between atoms: _542  and  _544
REMARK  231  A    between atoms: _544  and  _545
REMARK  232  A    between atoms: _548  and  _550
REMARK  233  A    between atoms: _550  and  _551
REMARK  234  A    between atoms: _550  and  _553
REMARK  235  A    between atoms: _553  and  _554
REMARK  236  A    between atoms: _557  and  _559
REMARK  237  A    between atoms: _559  and  _560
REMARK  238  A    between atoms: _559  and  _562
REMARK  239  A    between atoms: _562  and  _563
REMARK  240  A    between atoms: _569  and  _571
REMARK  241  A    between atoms: _571  and  _572
REMARK  242  A    between atoms: _574  and  _576
REMARK  243  A    between atoms: _576  and  _577
REMARK  244  A    between atoms: _576  and  _579
REMARK  245  A    between atoms: _579  and  _580
REMARK                            x       y       z     vdW  Elec       q    Type
REMARK                         _______ _______ _______ _____ _____    ______ ____
ROOT
ATOM      1  C   VAL A   2     -21.792   0.805  13.064  0.00  0.00    +0.241 C 
ATOM      2  O   VAL A   2     -22.130  -0.074  13.860  0.00  0.00    -0.273 OA
ATOM      3  N   THR A   3     -21.097   1.878  13.424  0.00  0.00    -0.295 N 
ATOM      4  H   THR A   3     -20.870   2.598  12.708  0.00  0.00    +0.150 HD
ENDROOT
BRANCH   1   5
ATOM      5  CA  VAL A   2     -22.173   0.717  11.588  0.00  0.00    +0.148 C 
BRANCH   5   7
ATOM      6  C   LEU A   1     -20.800  -0.482   9.966  0.00  0.00    +0.238 C 
ATOM      7  N   VAL A   2     -21.660  -0.505  10.980  0.00  0.00    -0.297 N 
ATOM      8  H   VAL A   2     -21.977  -1.423  11.351  0.00  0.00    +0.150 HD
ATOM      9  O   LEU A   1     -20.342   0.560   9.496  0.00  0.00    -0.274 OA
BRANCH   6  10
ATOM     10  CA  LEU A   1     -20.404  -1.839   9.393  0.00  0.00    +0.145 C 
BRANCH  10  11
ATOM     11  N   LEU A   1     -20.021  -1.745   7.988  0.00  0.00    -0.238 NA
ATOM     12  H   LEU A   1     -19.088  -1.358   7.740  0.00  0.00    +0.142 HD
ENDBRANCH  10  11
BRANCH  10  13
ATOM     13  CB  LEU A   1     -19.271  -2.451  10.214  0.00  0.00    +0.026 C 
BRANCH  13  14
ATOM     14  CG  LEU A   1     -18.968  -3.926   9.943  0.00  0.00    +0.002 C 
ATOM     15  CD2 LEU A   1     -17.757  -4.384  10.739  0.00  0.00    +0.000 C 
ATOM     16  CD1 LEU A   1     -20.182  -4.782  10.275  0.00  0.00    +0.000 C 
ENDBRANCH  13  14
ENDBRANCH  10  13
ENDBRANCH   6  10
ENDBRANCH   5   7
BRANCH   5  17
ATOM     17  CB  VAL A   2     -23.705   0.808  11.451  0.00  0.00    +0.027 C 
ATOM     18  CG2 VAL A   2     -24.210   2.133  11.997  0.00  0.00    +0.002 C 
ATOM     19  CG1 VAL A   2     -24.116   0.636   9.995  0.00  0.00    +0.002 C 
ENDBRANCH   5  17
ENDBRANCH   1   5
BRANCH   3  20
ATOM     20  CA  THR A   3     -20.644   2.074  14.793  0.00  0.00    +0.176 C 
BRANCH  20  21
ATOM     21  C   THR A   3     -21.757   2.581  15.702  0.00  0.00    +0.243 C 
ATOM     22  N   GLU A   4     -21.440   2.698  16.988  0.00  0.00    -0.298 N 
ATOM     23  H   GLU A   4     -20.485   2.424  17.294  0.00  0.00    +0.150 HD
ATOM     24  O   THR A   3     -22.869   2.857  15.250  0.00  0.00    -0.273 OA
BRANCH  22  25
ATOM     25  CA  GLU A   4     -22.379   3.195  17.984  0.00  0.00    +0.137 C 
BRANCH  25  26
ATOM     26  C   GLU A   4     -22.797   4.632  17.676  0.00  0.00    +0.227 C 
ATOM     27  O   GLU A   4     -23.880   5.071  18.062  0.00  0.00    -0.286 OA
ENDBRANCH  25  26
BRANCH  25  28
ATOM     28  CB  GLU A   4     -21.754   3.110  19.382  0.00  0.00    +0.039 C 
BRANCH  28  29
ATOM     29  CG  GLU A   4     -22.679   3.518  20.518  0.00  0.00    +0.116 C 
BRANCH  29  30
ATOM     30  CD  GLU A   4     -23.835   2.556  20.700  0.00  0.00    +0.365 C 
ATOM     31  OE2 GLU A   4     -24.963   3.023  20.963  0.00  0.00    -0.246 OA
ATOM     32  OE1 GLU A   4     -23.618   1.332  20.574  0.00  0.00    -0.246 OA
ENDBRANCH  29  30
ENDBRANCH  28  29
ENDBRANCH  25  28
ENDBRANCH  22  25
ENDBRANCH  20  21
BRANCH  20  33
ATOM     33  CB  THR A   3     -19.469   3.068  14.860  0.00  0.00    +0.137 C 
ATOM     34  CG2 THR A   3     -18.348   2.626  13.940  0.00  0.00    +0.034 C 
BRANCH  33  35
ATOM     35  OG1 THR A   3     -19.918   4.371  14.470  0.00  0.00    -0.382 OA
ATOM     36  HG1 THR A   3     -19.160   5.007  14.514  0.00  0.00    +0.210 HD
ENDBRANCH  33  35
ENDBRANCH  20  33
ENDBRANCH   3  20
TORSDOF 16
REMARK  Name = ../refined-set-2016/4rwj/4rwj_pocket.pdb
REMARK  245 active torsions:
REMARK  status: ('A' for Active; 'I' for Inactive)
REMARK    1  A    between atoms: _1  and  _3
REMARK    2  A    between atoms: _3  and  _4
REMARK    3  A    between atoms: _3  and  _6
REMARK    4  A    between atoms: _6  and  _7
REMARK    5  A    between atoms: _7  and  _8
REMARK    6  A    between atoms: _8  and  _9
REMARK    7  A    between atoms: _9  and  _10
REMARK    8  A    between atoms: _15  and  _16
REMARK    9  A    between atoms: _21  and  _23
REMARK   10  A    between atoms: _23  and  _24
REMARK   11  A    between atoms: _23  and  _26
REMARK   12  A    between atoms: _26  and  _27
REMARK   13  A    between atoms: _30  and  _32
REMARK   14  A    between atoms: _32  and  _33
REMARK   15  A    between atoms: _35  and  _37
REMARK   16  A    between atoms: _37  and  _38
REMARK   17  A    between atoms: _37  and  _40
REMARK   18  A    between atoms: _40  and  _41
REMARK   19  A    between atoms: _41  and  _42
REMARK   20  A    between atoms: _45  and  _47
REMARK   21  A    between atoms: _47  and  _48
REMARK   22  A    between atoms: _50  and  _52
REMARK   23  A    between atoms: _52  and  _53
REMARK   24  A    between atoms: _56  and  _58
REMARK   25  A    between atoms: _58  and  _59
REMARK   26  A    between atoms: _58  and  _61
REMARK   27  A    between atoms: _61  and  _62
REMARK   28  A    between atoms: _68  and  _70
REMARK   29  A    between atoms: _70  and  _71
REMARK   30  A    between atoms: _73  and  _75
REMARK   31  A    between atoms: _75  and  _76
REMARK   32  A    between atoms: _75  and  _78
REMARK   33  A    between atoms: _78  and  _79
REMARK   34  A    between atoms: _79  and  _80
REMARK   35  A    between atoms: _85  and  _87
REMARK   36  A    between atoms: _87  and  _88
REMARK   37  A    between atoms: _87  and  _90
REMARK   38  A    between atoms: _93  and  _95
REMARK   39  A    between atoms: _95  and  _96
REMARK   40  A    between atoms: _95  and  _98
REMARK   41  A    between atoms: _101  and  _103
REMARK   42  A    between atoms: _103  and  _104
REMARK   43  A    between atoms: _103  and  _106
REMARK   44  A    between atoms: _106  and  _107
REMARK   45  A    between atoms: _110  and  _112
REMARK   46  A    between atoms: _112  and  _113
REMARK   47  A    between atoms: _112  and  _115
REMARK   48  A    between atoms: _118  and  _120
REMARK   49  A    between atoms: _120  and  _121
REMARK   50  A    between atoms: _124  and  _126
REMARK   51  A    between atoms: _126  and  _127
REMARK   52  A    between atoms: _126  and  _129
REMARK   53  A    between atoms: _132  and  _134
REMARK   54  A    between atoms: _134  and  _135
REMARK   55  A    between atoms: _134  and  _137
REMARK   56  A    between atoms: _137  and  _138
REMARK   57  A    between atoms: _138  and  _139
REMARK   58  A    between atoms: _139  and  _140
REMARK   59  A    between atoms: _140  and  _141
REMARK   60  A    between atoms: _145  and  _147
REMARK   61  A    between atoms: _147  and  _148
REMARK   62  A    between atoms: _147  and  _150
REMARK   63  A    between atoms: _150  and  _151
REMARK   64  A    between atoms: _151  and  _152
REMARK   65  A    between atoms: _154  and  _156
REMARK   66  A    between atoms: _156  and  _157
REMARK   67  A    between atoms: _156  and  _159
REMARK   68  A    between atoms: _159  and  _160
REMARK   69  A    between atoms: _163  and  _165
REMARK   70  A    between atoms: _165  and  _166
REMARK   71  A    between atoms: _165  and  _168
REMARK   72  A    between atoms: _168  and  _169
REMARK   73  A    between atoms: _172  and  _174
REMARK   74  A    between atoms: _174  and  _175
REMARK   75  A    between atoms: _174  and  _177
REMARK   76  A    between atoms: _177  and  _178
REMARK   77  A    between atoms: _178  and  _179
REMARK   78  A    between atoms: _182  and  _184
REMARK   79  A    between atoms: _184  and  _185
REMARK   80  A    between atoms: _184  and  _187
REMARK   81  A    between atoms: _187  and  _188
REMARK   82  A    between atoms: _188  and  _189
REMARK   83  A    between atoms: _191  and  _193
REMARK   84  A    between atoms: _193  and  _194
REMARK   85  A    between atoms: _193  and  _196
REMARK   86  A    between atoms: _196  and  _197
REMARK   87  A    between atoms: _197  and  _198
REMARK   88  A    between atoms: _200  and  _202
REMARK   89  A    between atoms: _202  and  _203
REMARK   90  A    between atoms: _202  and  _205
REMARK   91  A    between atoms: _205  and  _206
REMARK   92  A    between atoms: _209  and  _211
REMARK   93  A    between atoms: _211  and  _212
REMARK   94  A    between atoms: _211  and  _214
REMARK   95  A    between atoms: _214  and  _215
REMARK   96  A    between atoms: _218  and  _220
REMARK   97  A    between atoms: _220  and  _221
REMARK   98  A    between atoms: _220  and  _223
REMARK   99  A    between atoms: _223  and  _224
REMARK  100  A    between atoms: _229  and  _231
REMARK  101  A    between atoms: _231  and  _232
REMARK  102  A    between atoms: _231  and  _234
REMARK  103  A    between atoms: _234  and  _235
REMARK  104  A    between atoms: _238  and  _240
REMARK  105  A    between atoms: _240  and  _241
REMARK  106  A    between atoms: _240  and  _243
REMARK  107  A    between atoms: _243  and  _244
REMARK  108  A    between atoms: _247  and  _249
REMARK  109  A    between atoms: _249  and  _250
REMARK  110  A    between atoms: _252  and  _254
REMARK  111  A    between atoms: _254  and  _255
REMARK  112  A    between atoms: _254  and  _257
REMARK  113  A    between atoms: _257  and  _258
REMARK  114  A    between atoms: _263  and  _264
REMARK  115  A    between atoms: _266  and  _268
REMARK  116  A    between atoms: _268  and  _269
REMARK  117  A    between atoms: _268  and  _271
REMARK  118  A    between atoms: _274  and  _276
REMARK  119  A    between atoms: _276  and  _277
REMARK  120  A    between atoms: _276  and  _279
REMARK  121  A    between atoms: _279  and  _280
REMARK  122  A    between atoms: _283  and  _285
REMARK  123  A    between atoms: _285  and  _286
REMARK  124  A    between atoms: _285  and  _288
REMARK  125  A    between atoms: _291  and  _293
REMARK  126  A    between atoms: _293  and  _294
REMARK  127  A    between atoms: _293  and  _296
REMARK  128  A    between atoms: _296  and  _297
REMARK  129  A    between atoms: _297  and  _298
REMARK  130  A    between atoms: _301  and  _303
REMARK  131  A    between atoms: _303  and  _304
REMARK  132  A    between atoms: _303  and  _306
REMARK  133  A    between atoms: _306  and  _307
REMARK  134  A    between atoms: _312  and  _313
REMARK  135  A    between atoms: _315  and  _317
REMARK  136  A    between atoms: _317  and  _318
REMARK  137  A    between atoms: _321  and  _323
REMARK  138  A    between atoms: _323  and  _324
REMARK  139  A    between atoms: _323  and  _326
REMARK  140  A    between atoms: _326  and  _327
REMARK  141  A    between atoms: _329  and  _331
REMARK  142  A    between atoms: _331  and  _332
REMARK  143  A    between atoms: _331  and  _334
REMARK  144  A    between atoms: _334  and  _335
REMARK  145  A    between atoms: _335  and  _336
REMARK  146  A    between atoms: _336  and  _337
REMARK  147  A    between atoms: _337  and  _338
REMARK  148  A    between atoms: _342  and  _344
REMARK  149  A    between atoms: _344  and  _345
REMARK  150  A    between atoms: _347  and  _349
REMARK  151  A    between atoms: _349  and  _350
REMARK  152  A    between atoms: _349  and  _352
REMARK  153  A    between atoms: _352  and  _353
REMARK  154  A    between atoms: _358  and  _360
REMARK  155  A    between atoms: _360  and  _361
REMARK  156  A    between atoms: _360  and  _363
REMARK  157  A    between atoms: _363  and  _364
REMARK  158  A    between atoms: _364  and  _365
REMARK  159  A    between atoms: _368  and  _370
REMARK  160  A    between atoms: _370  and  _371
REMARK  161  A    between atoms: _370  and  _373
REMARK  162  A    between atoms: _373  and  _374
REMARK  163  A    between atoms: _379  and  _380
REMARK  164  A    between atoms: _382  and  _384
REMARK  165  A    between atoms: _384  and  _385
REMARK  166  A    between atoms: _388  and  _390
REMARK  167  A    between atoms: _390  and  _391
REMARK  168  A    between atoms: _390  and  _393
REMARK  169  A    between atoms: _393  and  _394
REMARK  170  A    between atoms: _394  and  _395
REMARK  171  A    between atoms: _395  and  _396
REMARK  172  A    between atoms: _405  and  _407
REMARK  173  A    between atoms: _407  and  _408
REMARK  174  A    between atoms: _407  and  _410
REMARK  175  A    between atoms: _410  and  _411
REMARK  176  A    between atoms: _413  and  _415
REMARK  177  A    between atoms: _415  and  _416
REMARK  178  A    between atoms: _415  and  _418
REMARK  179  A    between atoms: _418  and  _419
REMARK  180  A    between atoms: _424  and  _426
REMARK  181  A    between atoms: _426  and  _427
REMARK  182  A    between atoms: _426  and  _429
REMARK  183  A    between atoms: _429  and  _430
REMARK  184  A    between atoms: _435  and  _437
REMARK  185  A    between atoms: _437  and  _438
REMARK  186  A    between atoms: _437  and  _440
REMARK  187  A    between atoms: _440  and  _441
REMARK  188  A    between atoms: _441  and  _442
REMARK  189  A    between atoms: _445  and  _447
REMARK  190  A    between atoms: _447  and  _448
REMARK  191  A    between atoms: _447  and  _450
REMARK  192  A    between atoms: _450  and  _451
REMARK  193  A    between atoms: _456  and  _458
REMARK  194  A    between atoms: _458  and  _459
REMARK  195  A    between atoms: _458  and  _461
REMARK  196  A    between atoms: _461  and  _462
REMARK  197  A    between atoms: _462  and  _463
REMARK  198  A    between atoms: _463  and  _464
REMARK  199  A    between atoms: _473  and  _475
REMARK  200  A    between atoms: _475  and  _476
REMARK  201  A    between atoms: _475  and  _478
REMARK  202  A    between atoms: _478  and  _479
REMARK  203  A    between atoms: _484  and  _486
REMARK  204  A    between atoms: _486  and  _487
REMARK  205  A    between atoms: _486  and  _489
REMARK  206  A    between atoms: _489  and  _490
REMARK  207  A    between atoms: _493  and  _495
REMARK  208  A    between atoms: _495  and  _496
REMARK  209  A    between atoms: _495  and  _498
REMARK  210  A    between atoms: _501  and  _503
REMARK  211  A    between atoms: _503  and  _504
REMARK  212  A    between atoms: _503  and  _506
REMARK  213  A    between atoms: _506  and  _507
REMARK  214  A    between atoms: _510  and  _512
REMARK  215  A    between atoms: _512  and  _513
REMARK  216  A    between atoms: _512  and  _515
REMARK  217  A    between atoms: _515  and  _516
REMARK  218  A    between atoms: _516  and  _517
REMARK  219  A    between atoms: _520  and  _522
REMARK  220  A    between atoms: _522  and  _523
REMARK  221  A    between atoms: _522  and  _525
REMARK  222  A    between atoms: _525  and  _526
REMARK  223  A    between atoms: _526  and  _527
REMARK  224  A    between atoms: _527  and  _528
REMARK  225  A    between atoms: _528  and  _529
REMARK  226  A    between atoms: _533  and  _535
REMARK  227  A    between atoms: _535  and  _536
REMARK  228  A    between atoms: _535  and  _538
REMARK  229  A    between atoms: _538  and  _539
REMARK  230  A    between atoms: _542  and  _544
REMARK  231  A    between atoms: _544  and  _545
REMARK  232  A    between atoms: _548  and  _550
REMARK  233  A    between atoms: _550  and  _551
REMARK  234  A    between atoms: _550  and  _553
REMARK  235  A    between atoms: _553  and  _554
REMARK  236  A    between atoms: _557  and  _559
REMARK  237  A    between atoms: _559  and  _560
REMARK  238  A    between atoms: _559  and  _562
REMARK  239  A    between atoms: _562  and  _563
REMARK  240  A    between atoms: _569  and  _571
REMARK  241  A    between atoms: _571  and  _572
REMARK  242  A    between atoms: _574  and  _576
REMARK  243  A    between atoms: _576  and  _577
REMARK  244  A    between atoms: _576  and  _579
REMARK  245  A    between atoms: _579  and  _580
REMARK                            x       y       z     vdW  Elec       q    Type
REMARK                         _______ _______ _______ _____ _____    ______ ____
ROOT
ATOM      1  CA  ASP A   4     -13.115  -6.719   4.376  0.00  0.00    +0.160 C 
ENDROOT
BRANCH   1   3
ATOM      2  C   ALA A   3     -14.646  -4.851   4.883  0.00  0.00    +0.241 C 
ATOM      3  N   ASP A   4     -13.766  -5.768   5.281  0.00  0.00    -0.297 N 
ATOM      4  H   ASP A   4     -13.527  -5.812   6.292  0.00  0.00    +0.150 HD
ATOM      5  O   ALA A   3     -15.009  -4.712   3.714  0.00  0.00    -0.273 OA
BRANCH   2   6
ATOM      6  CA  ALA A   3     -15.218  -3.966   5.986  0.00  0.00    +0.149 C 
ATOM      7  CB  ALA A   3     -16.174  -4.771   6.858  0.00  0.00    +0.031 C 
BRANCH   6  10
ATOM      8  C   ILE A   2     -15.410  -1.567   5.610  0.00  0.00    +0.241 C 
ATOM      9  O   ILE A   2     -14.340  -1.340   6.176  0.00  0.00    -0.273 OA
ATOM     10  N   ALA A   3     -15.900  -2.794   5.453  0.00  0.00    -0.297 N 
ATOM     11  H   ALA A   3     -16.794  -2.920   4.936  0.00  0.00    +0.150 HD
BRANCH   8  12
ATOM     12  CA  ILE A   2     -16.257  -0.426   5.056  0.00  0.00    +0.148 C 
BRANCH  12  15
ATOM     13  C   LYS A   1     -17.166   0.537   7.102  0.00  0.00    +0.238 C 
ATOM     14  O   LYS A   1     -17.820  -0.475   7.356  0.00  0.00    -0.274 OA
ATOM     15  N   ILE A   2     -16.385   0.646   6.033  0.00  0.00    -0.297 N 
ATOM     16  H   ILE A   2     -15.848   1.525   5.889  0.00  0.00    +0.150 HD
BRANCH  13  17
ATOM     17  CA  LYS A   1     -17.200   1.748   8.028  0.00  0.00    +0.145 C 
BRANCH  17  18
ATOM     18  N   LYS A   1     -18.563   2.249   8.196  0.00  0.00    -0.238 NA
ATOM     19  H   LYS A   1     -19.319   1.587   8.466  0.00  0.00    +0.142 HD
ENDBRANCH  17  18
BRANCH  17  20
ATOM     20  CB  LYS A   1     -16.582   1.387   9.381  0.00  0.00    +0.026 C 
BRANCH  20  21
ATOM     21  CG  LYS A   1     -16.252   2.583  10.262  0.00  0.00    -0.000 C 
BRANCH  21  22
ATOM     22  CD  LYS A   1     -15.648   2.138  11.589  0.00  0.00    -0.024 C 
BRANCH  22  23
ATOM     23  CE  LYS A   1     -15.122   3.323  12.393  0.00  0.00    -0.086 C 
BRANCH  23  24
ATOM     24  NZ  LYS A   1     -14.002   4.019  11.691  0.00  0.00    +0.380 N 
ATOM     25  HZ1 LYS A   1     -13.674   4.818  12.271  0.00  0.00    -0.089 HD
ATOM     26  HZ2 LYS A   1     -13.219   3.351  11.544  0.00  0.00    -0.089 HD
ATOM     27  HZ3 LYS A   1     -14.337   4.371  10.771  0.00  0.00    -0.089 HD
ENDBRANCH  23  24
ENDBRANCH  22  23
ENDBRANCH  21  22
ENDBRANCH  20  21
ENDBRANCH  17  20
ENDBRANCH  13  17
ENDBRANCH  12  15
BRANCH  12  28
ATOM     28  CB  ILE A   2     -15.641   0.095   3.741  0.00  0.00    +0.027 C 
ATOM     29  CG2 ILE A   2     -15.377  -1.050   2.778  0.00  0.00    +0.002 C 
BRANCH  28  30
ATOM     30  CG1 ILE A   2     -16.570   1.129   3.101  0.00  0.00    +0.002 C 
ATOM     31  CD1 ILE A   2     -15.899   1.994   2.068  0.00  0.00    +0.000 C 
ENDBRANCH  28  30
ENDBRANCH  12  28
ENDBRANCH   8  12
ENDBRANCH   6  10
ENDBRANCH   2   6
ENDBRANCH   1   3
BRANCH   1  32
ATOM     32  C   ASP A   4     -12.602  -6.115   3.069  0.00  0.00    +0.241 C 
ATOM     33  N   PHE A   5     -11.707  -5.137   3.160  0.00  0.00    -0.297 N 
ATOM     34  H   PHE A   5     -11.409  -4.799   4.097  0.00  0.00    +0.150 HD
ATOM     35  O   ASP A   4     -13.009  -6.542   1.991  0.00  0.00    -0.273 OA
BRANCH  33  36
ATOM     36  CA  PHE A   5     -11.137  -4.531   1.959  0.00  0.00    +0.153 C 
BRANCH  36  37
ATOM     37  C   PHE A   5      -9.704  -4.998   1.693  0.00  0.00    +0.241 C 
ATOM     38  N   GLY A   6      -9.131  -5.731   2.641  0.00  0.00    -0.295 N 
ATOM     39  H   GLY A   6      -9.676  -5.981   3.491  0.00  0.00    +0.150 HD
ATOM     40  O   PHE A   5      -9.127  -4.691   0.650  0.00  0.00    -0.273 OA
BRANCH  38  41
ATOM     41  CA  GLY A   6      -7.760  -6.190   2.515  0.00  0.00    +0.176 C 
BRANCH  41  42
ATOM     42  C   GLY A   6      -7.648  -7.680   2.271  0.00  0.00    +0.243 C 
ATOM     43  O   GLY A   6      -6.592  -8.273   2.484  0.00  0.00    -0.273 OA
ATOM     44  N   LEU A   7      -8.740  -8.289   1.824  0.00  0.00    -0.298 N 
ATOM     45  H   LEU A   7      -9.591  -7.726   1.625  0.00  0.00    +0.150 HD
BRANCH  44  46
ATOM     46  CA  LEU A   7      -8.771  -9.731   1.606  0.00  0.00    +0.137 C 
BRANCH  46  47
ATOM     47  C   LEU A   7      -7.882 -10.161   0.444  0.00  0.00    +0.227 C 
ATOM     48  O   LEU A   7      -7.794  -9.475  -0.577  0.00  0.00    -0.286 OA
ENDBRANCH  46  47
BRANCH  46  49
ATOM     49  CB  LEU A   7     -10.206 -10.200   1.360  0.00  0.00    +0.028 C 
BRANCH  49  50
ATOM     50  CG  LEU A   7     -11.188 -10.047   2.523  0.00  0.00    +0.002 C 
ATOM     51  CD2 LEU A   7     -10.648 -10.734   3.768  0.00  0.00    +0.000 C 
ATOM     52  CD1 LEU A   7     -12.555 -10.602   2.148  0.00  0.00    +0.000 C 
ENDBRANCH  49  50
ENDBRANCH  46  49
ENDBRANCH  44  46
ENDBRANCH  41  42
ENDBRANCH  38  41
ENDBRANCH  36  37
BRANCH  36  53
ATOM     53  CB  PHE A   5     -11.170  -3.006   2.074  0.00  0.00    +0.055 C 
BRANCH  53  54
ATOM     54  CG  PHE A   5     -10.539  -2.480   3.332  0.00  0.00    -0.020 A 
ATOM     55  CD2 PHE A   5     -11.312  -2.211   4.450  0.00  0.00    -0.004 A 
ATOM     56  CE2 PHE A   5     -10.734  -1.729   5.611  0.00  0.00    -0.000 A 
ATOM     57  CZ  PHE A   5      -9.371  -1.512   5.664  0.00  0.00    -0.000 A 
ATOM     58  CE1 PHE A   5      -8.590  -1.779   4.559  0.00  0.00    -0.000 A 
ATOM     59  CD1 PHE A   5      -9.173  -2.261   3.401  0.00  0.00    -0.004 A 
ENDBRANCH  53  54
ENDBRANCH  36  53
ENDBRANCH  33  36
ENDBRANCH   1  32
BRANCH   1  60
ATOM     60  CB  ASP A   4     -14.075  -7.861   4.039  0.00  0.00    +0.143 C 
BRANCH  60  61
ATOM     61  CG  ASP A   4     -14.036  -8.976   5.057  0.00  0.00    +0.367 C 
ATOM     62  OD2 ASP A   4     -12.938  -9.286   5.564  0.00  0.00    -0.246 OA
ATOM     63  OD1 ASP A   4     -15.103  -9.556   5.336  0.00  0.00    -0.246 OA
ENDBRANCH  60  61
ENDBRANCH   1  60
TORSDOF 27
REMARK  Name = ../refined-set-2016/4rwj/4rwj_pocket.pdb
REMARK  245 active torsions:
REMARK  status: ('A' for Active; 'I' for Inactive)
REMARK    1  A    between atoms: _1  and  _3
REMARK    2  A    between atoms: _3  and  _4
REMARK    3  A    between atoms: _3  and  _6
REMARK    4  A    between atoms: _6  and  _7
REMARK    5  A    between atoms: _7  and  _8
REMARK    6  A    between atoms: _8  and  _9
REMARK    7  A    between atoms: _9  and  _10
REMARK    8  A    between atoms: _15  and  _16
REMARK    9  A    between atoms: _21  and  _23
REMARK   10  A    between atoms: _23  and  _24
REMARK   11  A    between atoms: _23  and  _26
REMARK   12  A    between atoms: _26  and  _27
REMARK   13  A    between atoms: _30  and  _32
REMARK   14  A    between atoms: _32  and  _33
REMARK   15  A    between atoms: _35  and  _37
REMARK   16  A    between atoms: _37  and  _38
REMARK   17  A    between atoms: _37  and  _40
REMARK   18  A    between atoms: _40  and  _41
REMARK   19  A    between atoms: _41  and  _42
REMARK   20  A    between atoms: _45  and  _47
REMARK   21  A    between atoms: _47  and  _48
REMARK   22  A    between atoms: _50  and  _52
REMARK   23  A    between atoms: _52  and  _53
REMARK   24  A    between atoms: _56  and  _58
REMARK   25  A    between atoms: _58  and  _59
REMARK   26  A    between atoms: _58  and  _61
REMARK   27  A    between atoms: _61  and  _62
REMARK   28  A    between atoms: _68  and  _70
REMARK   29  A    between atoms: _70  and  _71
REMARK   30  A    between atoms: _73  and  _75
REMARK   31  A    between atoms: _75  and  _76
REMARK   32  A    between atoms: _75  and  _78
REMARK   33  A    between atoms: _78  and  _79
REMARK   34  A    between atoms: _79  and  _80
REMARK   35  A    between atoms: _85  and  _87
REMARK   36  A    between atoms: _87  and  _88
REMARK   37  A    between atoms: _87  and  _90
REMARK   38  A    between atoms: _93  and  _95
REMARK   39  A    between atoms: _95  and  _96
REMARK   40  A    between atoms: _95  and  _98
REMARK   41  A    between atoms: _101  and  _103
REMARK   42  A    between atoms: _103  and  _104
REMARK   43  A    between atoms: _103  and  _106
REMARK   44  A    between atoms: _106  and  _107
REMARK   45  A    between atoms: _110  and  _112
REMARK   46  A    between atoms: _112  and  _113
REMARK   47  A    between atoms: _112  and  _115
REMARK   48  A    between atoms: _118  and  _120
REMARK   49  A    between atoms: _120  and  _121
REMARK   50  A    between atoms: _124  and  _126
REMARK   51  A    between atoms: _126  and  _127
REMARK   52  A    between atoms: _126  and  _129
REMARK   53  A    between atoms: _132  and  _134
REMARK   54  A    between atoms: _134  and  _135
REMARK   55  A    between atoms: _134  and  _137
REMARK   56  A    between atoms: _137  and  _138
REMARK   57  A    between atoms: _138  and  _139
REMARK   58  A    between atoms: _139  and  _140
REMARK   59  A    between atoms: _140  and  _141
REMARK   60  A    between atoms: _145  and  _147
REMARK   61  A    between atoms: _147  and  _148
REMARK   62  A    between atoms: _147  and  _150
REMARK   63  A    between atoms: _150  and  _151
REMARK   64  A    between atoms: _151  and  _152
REMARK   65  A    between atoms: _154  and  _156
REMARK   66  A    between atoms: _156  and  _157
REMARK   67  A    between atoms: _156  and  _159
REMARK   68  A    between atoms: _159  and  _160
REMARK   69  A    between atoms: _163  and  _165
REMARK   70  A    between atoms: _165  and  _166
REMARK   71  A    between atoms: _165  and  _168
REMARK   72  A    between atoms: _168  and  _169
REMARK   73  A    between atoms: _172  and  _174
REMARK   74  A    between atoms: _174  and  _175
REMARK   75  A    between atoms: _174  and  _177
REMARK   76  A    between atoms: _177  and  _178
REMARK   77  A    between atoms: _178  and  _179
REMARK   78  A    between atoms: _182  and  _184
REMARK   79  A    between atoms: _184  and  _185
REMARK   80  A    between atoms: _184  and  _187
REMARK   81  A    between atoms: _187  and  _188
REMARK   82  A    between atoms: _188  and  _189
REMARK   83  A    between atoms: _191  and  _193
REMARK   84  A    between atoms: _193  and  _194
REMARK   85  A    between atoms: _193  and  _196
REMARK   86  A    between atoms: _196  and  _197
REMARK   87  A    between atoms: _197  and  _198
REMARK   88  A    between atoms: _200  and  _202
REMARK   89  A    between atoms: _202  and  _203
REMARK   90  A    between atoms: _202  and  _205
REMARK   91  A    between atoms: _205  and  _206
REMARK   92  A    between atoms: _209  and  _211
REMARK   93  A    between atoms: _211  and  _212
REMARK   94  A    between atoms: _211  and  _214
REMARK   95  A    between atoms: _214  and  _215
REMARK   96  A    between atoms: _218  and  _220
REMARK   97  A    between atoms: _220  and  _221
REMARK   98  A    between atoms: _220  and  _223
REMARK   99  A    between atoms: _223  and  _224
REMARK  100  A    between atoms: _229  and  _231
REMARK  101  A    between atoms: _231  and  _232
REMARK  102  A    between atoms: _231  and  _234
REMARK  103  A    between atoms: _234  and  _235
REMARK  104  A    between atoms: _238  and  _240
REMARK  105  A    between atoms: _240  and  _241
REMARK  106  A    between atoms: _240  and  _243
REMARK  107  A    between atoms: _243  and  _244
REMARK  108  A    between atoms: _247  and  _249
REMARK  109  A    between atoms: _249  and  _250
REMARK  110  A    between atoms: _252  and  _254
REMARK  111  A    between atoms: _254  and  _255
REMARK  112  A    between atoms: _254  and  _257
REMARK  113  A    between atoms: _257  and  _258
REMARK  114  A    between atoms: _263  and  _264
REMARK  115  A    between atoms: _266  and  _268
REMARK  116  A    between atoms: _268  and  _269
REMARK  117  A    between atoms: _268  and  _271
REMARK  118  A    between atoms: _274  and  _276
REMARK  119  A    between atoms: _276  and  _277
REMARK  120  A    between atoms: _276  and  _279
REMARK  121  A    between atoms: _279  and  _280
REMARK  122  A    between atoms: _283  and  _285
REMARK  123  A    between atoms: _285  and  _286
REMARK  124  A    between atoms: _285  and  _288
REMARK  125  A    between atoms: _291  and  _293
REMARK  126  A    between atoms: _293  and  _294
REMARK  127  A    between atoms: _293  and  _296
REMARK  128  A    between atoms: _296  and  _297
REMARK  129  A    between atoms: _297  and  _298
REMARK  130  A    between atoms: _301  and  _303
REMARK  131  A    between atoms: _303  and  _304
REMARK  132  A    between atoms: _303  and  _306
REMARK  133  A    between atoms: _306  and  _307
REMARK  134  A    between atoms: _312  and  _313
REMARK  135  A    between atoms: _315  and  _317
REMARK  136  A    between atoms: _317  and  _318
REMARK  137  A    between atoms: _321  and  _323
REMARK  138  A    between atoms: _323  and  _324
REMARK  139  A    between atoms: _323  and  _326
REMARK  140  A    between atoms: _326  and  _327
REMARK  141  A    between atoms: _329  and  _331
REMARK  142  A    between atoms: _331  and  _332
REMARK  143  A    between atoms: _331  and  _334
REMARK  144  A    between atoms: _334  and  _335
REMARK  145  A    between atoms: _335  and  _336
REMARK  146  A    between atoms: _336  and  _337
REMARK  147  A    between atoms: _337  and  _338
REMARK  148  A    between atoms: _342  and  _344
REMARK  149  A    between atoms: _344  and  _345
REMARK  150  A    between atoms: _347  and  _349
REMARK  151  A    between atoms: _349  and  _350
REMARK  152  A    between atoms: _349  and  _352
REMARK  153  A    between atoms: _352  and  _353
REMARK  154  A    between atoms: _358  and  _360
REMARK  155  A    between atoms: _360  and  _361
REMARK  156  A    between atoms: _360  and  _363
REMARK  157  A    between atoms: _363  and  _364
REMARK  158  A    between atoms: _364  and  _365
REMARK  159  A    between atoms: _368  and  _370
REMARK  160  A    between atoms: _370  and  _371
REMARK  161  A    between atoms: _370  and  _373
REMARK  162  A    between atoms: _373  and  _374
REMARK  163  A    between atoms: _379  and  _380
REMARK  164  A    between atoms: _382  and  _384
REMARK  165  A    between atoms: _384  and  _385
REMARK  166  A    between atoms: _388  and  _390
REMARK  167  A    between atoms: _390  and  _391
REMARK  168  A    between atoms: _390  and  _393
REMARK  169  A    between atoms: _393  and  _394
REMARK  170  A    between atoms: _394  and  _395
REMARK  171  A    between atoms: _395  and  _396
REMARK  172  A    between atoms: _405  and  _407
REMARK  173  A    between atoms: _407  and  _408
REMARK  174  A    between atoms: _407  and  _410
REMARK  175  A    between atoms: _410  and  _411
REMARK  176  A    between atoms: _413  and  _415
REMARK  177  A    between atoms: _415  and  _416
REMARK  178  A    between atoms: _415  and  _418
REMARK  179  A    between atoms: _418  and  _419
REMARK  180  A    between atoms: _424  and  _426
REMARK  181  A    between atoms: _426  and  _427
REMARK  182  A    between atoms: _426  and  _429
REMARK  183  A    between atoms: _429  and  _430
REMARK  184  A    between atoms: _435  and  _437
REMARK  185  A    between atoms: _437  and  _438
REMARK  186  A    between atoms: _437  and  _440
REMARK  187  A    between atoms: _440  and  _441
REMARK  188  A    between atoms: _441  and  _442
REMARK  189  A    between atoms: _445  and  _447
REMARK  190  A    between atoms: _447  and  _448
REMARK  191  A    between atoms: _447  and  _450
REMARK  192  A    between atoms: _450  and  _451
REMARK  193  A    between atoms: _456  and  _458
REMARK  194  A    between atoms: _458  and  _459
REMARK  195  A    between atoms: _458  and  _461
REMARK  196  A    between atoms: _461  and  _462
REMARK  197  A    between atoms: _462  and  _463
REMARK  198  A    between atoms: _463  and  _464
REMARK  199  A    between atoms: _473  and  _475
REMARK  200  A    between atoms: _475  and  _476
REMARK  201  A    between atoms: _475  and  _478
REMARK  202  A    between atoms: _478  and  _479
REMARK  203  A    between atoms: _484  and  _486
REMARK  204  A    between atoms: _486  and  _487
REMARK  205  A    between atoms: _486  and  _489
REMARK  206  A    between atoms: _489  and  _490
REMARK  207  A    between atoms: _493  and  _495
REMARK  208  A    between atoms: _495  and  _496
REMARK  209  A    between atoms: _495  and  _498
REMARK  210  A    between atoms: _501  and  _503
REMARK  211  A    between atoms: _503  and  _504
REMARK  212  A    between atoms: _503  and  _506
REMARK  213  A    between atoms: _506  and  _507
REMARK  214  A    between atoms: _510  and  _512
REMARK  215  A    between atoms: _512  and  _513
REMARK  216  A    between atoms: _512  and  _515
REMARK  217  A    between atoms: _515  and  _516
REMARK  218  A    between atoms: _516  and  _517
REMARK  219  A    between atoms: _520  and  _522
REMARK  220  A    between atoms: _522  and  _523
REMARK  221  A    between atoms: _522  and  _525
REMARK  222  A    between atoms: _525  and  _526
REMARK  223  A    between atoms: _526  and  _527
REMARK  224  A    between atoms: _527  and  _528
REMARK  225  A    between atoms: _528  and  _529
REMARK  226  A    between atoms: _533  and  _535
REMARK  227  A    between atoms: _535  and  _536
REMARK  228  A    between atoms: _535  and  _538
REMARK  229  A    between atoms: _538  and  _539
REMARK  230  A    between atoms: _542  and  _544
REMARK  231  A    between atoms: _544  and  _545
REMARK  232  A    between atoms: _548  and  _550
REMARK  233  A    between atoms: _550  and  _551
REMARK  234  A    between atoms: _550  and  _553
REMARK  235  A    between atoms: _553  and  _554
REMARK  236  A    between atoms: _557  and  _559
REMARK  237  A    between atoms: _559  and  _560
REMARK  238  A    between atoms: _559  and  _562
REMARK  239  A    between atoms: _562  and  _563
REMARK  240  A    between atoms: _569  and  _571
REMARK  241  A    between atoms: _571  and  _572
REMARK  242  A    between atoms: _574  and  _576
REMARK  243  A    between atoms: _576  and  _577
REMARK  244  A    between atoms: _576  and  _579
REMARK  245  A    between atoms: _579  and  _580
REMARK                            x       y       z     vdW  Elec       q    Type
REMARK                         _______ _______ _______ _____ _____    ______ ____
ROOT
ATOM      1  O   HOH     1     -13.196  -0.182  18.392  0.00  0.00    +0.000 OA
ENDROOT
TORSDOF 0
REMARK  Name = ../refined-set-2016/4rwj/4rwj_pocket.pdb
REMARK  245 active torsions:
REMARK  status: ('A' for Active; 'I' for Inactive)
REMARK    1  A    between atoms: _1  and  _3
REMARK    2  A    between atoms: _3  and  _4
REMARK    3  A    between atoms: _3  and  _6
REMARK    4  A    between atoms: _6  and  _7
REMARK    5  A    between atoms: _7  and  _8
REMARK    6  A    between atoms: _8  and  _9
REMARK    7  A    between atoms: _9  and  _10
REMARK    8  A    between atoms: _15  and  _16
REMARK    9  A    between atoms: _21  and  _23
REMARK   10  A    between atoms: _23  and  _24
REMARK   11  A    between atoms: _23  and  _26
REMARK   12  A    between atoms: _26  and  _27
REMARK   13  A    between atoms: _30  and  _32
REMARK   14  A    between atoms: _32  and  _33
REMARK   15  A    between atoms: _35  and  _37
REMARK   16  A    between atoms: _37  and  _38
REMARK   17  A    between atoms: _37  and  _40
REMARK   18  A    between atoms: _40  and  _41
REMARK   19  A    between atoms: _41  and  _42
REMARK   20  A    between atoms: _45  and  _47
REMARK   21  A    between atoms: _47  and  _48
REMARK   22  A    between atoms: _50  and  _52
REMARK   23  A    between atoms: _52  and  _53
REMARK   24  A    between atoms: _56  and  _58
REMARK   25  A    between atoms: _58  and  _59
REMARK   26  A    between atoms: _58  and  _61
REMARK   27  A    between atoms: _61  and  _62
REMARK   28  A    between atoms: _68  and  _70
REMARK   29  A    between atoms: _70  and  _71
REMARK   30  A    between atoms: _73  and  _75
REMARK   31  A    between atoms: _75  and  _76
REMARK   32  A    between atoms: _75  and  _78
REMARK   33  A    between atoms: _78  and  _79
REMARK   34  A    between atoms: _79  and  _80
REMARK   35  A    between atoms: _85  and  _87
REMARK   36  A    between atoms: _87  and  _88
REMARK   37  A    between atoms: _87  and  _90
REMARK   38  A    between atoms: _93  and  _95
REMARK   39  A    between atoms: _95  and  _96
REMARK   40  A    between atoms: _95  and  _98
REMARK   41  A    between atoms: _101  and  _103
REMARK   42  A    between atoms: _103  and  _104
REMARK   43  A    between atoms: _103  and  _106
REMARK   44  A    between atoms: _106  and  _107
REMARK   45  A    between atoms: _110  and  _112
REMARK   46  A    between atoms: _112  and  _113
REMARK   47  A    between atoms: _112  and  _115
REMARK   48  A    between atoms: _118  and  _120
REMARK   49  A    between atoms: _120  and  _121
REMARK   50  A    between atoms: _124  and  _126
REMARK   51  A    between atoms: _126  and  _127
REMARK   52  A    between atoms: _126  and  _129
REMARK   53  A    between atoms: _132  and  _134
REMARK   54  A    between atoms: _134  and  _135
REMARK   55  A    between atoms: _134  and  _137
REMARK   56  A    between atoms: _137  and  _138
REMARK   57  A    between atoms: _138  and  _139
REMARK   58  A    between atoms: _139  and  _140
REMARK   59  A    between atoms: _140  and  _141
REMARK   60  A    between atoms: _145  and  _147
REMARK   61  A    between atoms: _147  and  _148
REMARK   62  A    between atoms: _147  and  _150
REMARK   63  A    between atoms: _150  and  _151
REMARK   64  A    between atoms: _151  and  _152
REMARK   65  A    between atoms: _154  and  _156
REMARK   66  A    between atoms: _156  and  _157
REMARK   67  A    between atoms: _156  and  _159
REMARK   68  A    between atoms: _159  and  _160
REMARK   69  A    between atoms: _163  and  _165
REMARK   70  A    between atoms: _165  and  _166
REMARK   71  A    between atoms: _165  and  _168
REMARK   72  A    between atoms: _168  and  _169
REMARK   73  A    between atoms: _172  and  _174
REMARK   74  A    between atoms: _174  and  _175
REMARK   75  A    between atoms: _174  and  _177
REMARK   76  A    between atoms: _177  and  _178
REMARK   77  A    between atoms: _178  and  _179
REMARK   78  A    between atoms: _182  and  _184
REMARK   79  A    between atoms: _184  and  _185
REMARK   80  A    between atoms: _184  and  _187
REMARK   81  A    between atoms: _187  and  _188
REMARK   82  A    between atoms: _188  and  _189
REMARK   83  A    between atoms: _191  and  _193
REMARK   84  A    between atoms: _193  and  _194
REMARK   85  A    between atoms: _193  and  _196
REMARK   86  A    between atoms: _196  and  _197
REMARK   87  A    between atoms: _197  and  _198
REMARK   88  A    between atoms: _200  and  _202
REMARK   89  A    between atoms: _202  and  _203
REMARK   90  A    between atoms: _202  and  _205
REMARK   91  A    between atoms: _205  and  _206
REMARK   92  A    between atoms: _209  and  _211
REMARK   93  A    between atoms: _211  and  _212
REMARK   94  A    between atoms: _211  and  _214
REMARK   95  A    between atoms: _214  and  _215
REMARK   96  A    between atoms: _218  and  _220
REMARK   97  A    between atoms: _220  and  _221
REMARK   98  A    between atoms: _220  and  _223
REMARK   99  A    between atoms: _223  and  _224
REMARK  100  A    between atoms: _229  and  _231
REMARK  101  A    between atoms: _231  and  _232
REMARK  102  A    between atoms: _231  and  _234
REMARK  103  A    between atoms: _234  and  _235
REMARK  104  A    between atoms: _238  and  _240
REMARK  105  A    between atoms: _240  and  _241
REMARK  106  A    between atoms: _240  and  _243
REMARK  107  A    between atoms: _243  and  _244
REMARK  108  A    between atoms: _247  and  _249
REMARK  109  A    between atoms: _249  and  _250
REMARK  110  A    between atoms: _252  and  _254
REMARK  111  A    between atoms: _254  and  _255
REMARK  112  A    between atoms: _254  and  _257
REMARK  113  A    between atoms: _257  and  _258
REMARK  114  A    between atoms: _263  and  _264
REMARK  115  A    between atoms: _266  and  _268
REMARK  116  A    between atoms: _268  and  _269
REMARK  117  A    between atoms: _268  and  _271
REMARK  118  A    between atoms: _274  and  _276
REMARK  119  A    between atoms: _276  and  _277
REMARK  120  A    between atoms: _276  and  _279
REMARK  121  A    between atoms: _279  and  _280
REMARK  122  A    between atoms: _283  and  _285
REMARK  123  A    between atoms: _285  and  _286
REMARK  124  A    between atoms: _285  and  _288
REMARK  125  A    between atoms: _291  and  _293
REMARK  126  A    between atoms: _293  and  _294
REMARK  127  A    between atoms: _293  and  _296
REMARK  128  A    between atoms: _296  and  _297
REMARK  129  A    between atoms: _297  and  _298
REMARK  130  A    between atoms: _301  and  _303
REMARK  131  A    between atoms: _303  and  _304
REMARK  132  A    between atoms: _303  and  _306
REMARK  133  A    between atoms: _306  and  _307
REMARK  134  A    between atoms: _312  and  _313
REMARK  135  A    between atoms: _315  and  _317
REMARK  136  A    between atoms: _317  and  _318
REMARK  137  A    between atoms: _321  and  _323
REMARK  138  A    between atoms: _323  and  _324
REMARK  139  A    between atoms: _323  and  _326
REMARK  140  A    between atoms: _326  and  _327
REMARK  141  A    between atoms: _329  and  _331
REMARK  142  A    between atoms: _331  and  _332
REMARK  143  A    between atoms: _331  and  _334
REMARK  144  A    between atoms: _334  and  _335
REMARK  145  A    between atoms: _335  and  _336
REMARK  146  A    between atoms: _336  and  _337
REMARK  147  A    between atoms: _337  and  _338
REMARK  148  A    between atoms: _342  and  _344
REMARK  149  A    between atoms: _344  and  _345
REMARK  150  A    between atoms: _347  and  _349
REMARK  151  A    between atoms: _349  and  _350
REMARK  152  A    between atoms: _349  and  _352
REMARK  153  A    between atoms: _352  and  _353
REMARK  154  A    between atoms: _358  and  _360
REMARK  155  A    between atoms: _360  and  _361
REMARK  156  A    between atoms: _360  and  _363
REMARK  157  A    between atoms: _363  and  _364
REMARK  158  A    between atoms: _364  and  _365
REMARK  159  A    between atoms: _368  and  _370
REMARK  160  A    between atoms: _370  and  _371
REMARK  161  A    between atoms: _370  and  _373
REMARK  162  A    between atoms: _373  and  _374
REMARK  163  A    between atoms: _379  and  _380
REMARK  164  A    between atoms: _382  and  _384
REMARK  165  A    between atoms: _384  and  _385
REMARK  166  A    between atoms: _388  and  _390
REMARK  167  A    between atoms: _390  and  _391
REMARK  168  A    between atoms: _390  and  _393
REMARK  169  A    between atoms: _393  and  _394
REMARK  170  A    between atoms: _394  and  _395
REMARK  171  A    between atoms: _395  and  _396
REMARK  172  A    between atoms: _405  and  _407
REMARK  173  A    between atoms: _407  and  _408
REMARK  174  A    between atoms: _407  and  _410
REMARK  175  A    between atoms: _410  and  _411
REMARK  176  A    between atoms: _413  and  _415
REMARK  177  A    between atoms: _415  and  _416
REMARK  178  A    between atoms: _415  and  _418
REMARK  179  A    between atoms: _418  and  _419
REMARK  180  A    between atoms: _424  and  _426
REMARK  181  A    between atoms: _426  and  _427
REMARK  182  A    between atoms: _426  and  _429
REMARK  183  A    between atoms: _429  and  _430
REMARK  184  A    between atoms: _435  and  _437
REMARK  185  A    between atoms: _437  and  _438
REMARK  186  A    between atoms: _437  and  _440
REMARK  187  A    between atoms: _440  and  _441
REMARK  188  A    between atoms: _441  and  _442
REMARK  189  A    between atoms: _445  and  _447
REMARK  190  A    between atoms: _447  and  _448
REMARK  191  A    between atoms: _447  and  _450
REMARK  192  A    between atoms: _450  and  _451
REMARK  193  A    between atoms: _456  and  _458
REMARK  194  A    between atoms: _458  and  _459
REMARK  195  A    between atoms: _458  and  _461
REMARK  196  A    between atoms: _461  and  _462
REMARK  197  A    between atoms: _462  and  _463
REMARK  198  A    between atoms: _463  and  _464
REMARK  199  A    between atoms: _473  and  _475
REMARK  200  A    between atoms: _475  and  _476
REMARK  201  A    between atoms: _475  and  _478
REMARK  202  A    between atoms: _478  and  _479
REMARK  203  A    between atoms: _484  and  _486
REMARK  204  A    between atoms: _486  and  _487
REMARK  205  A    between atoms: _486  and  _489
REMARK  206  A    between atoms: _489  and  _490
REMARK  207  A    between atoms: _493  and  _495
REMARK  208  A    between atoms: _495  and  _496
REMARK  209  A    between atoms: _495  and  _498
REMARK  210  A    between atoms: _501  and  _503
REMARK  211  A    between atoms: _503  and  _504
REMARK  212  A    between atoms: _503  and  _506
REMARK  213  A    between atoms: _506  and  _507
REMARK  214  A    between atoms: _510  and  _512
REMARK  215  A    between atoms: _512  and  _513
REMARK  216  A    between atoms: _512  and  _515
REMARK  217  A    between atoms: _515  and  _516
REMARK  218  A    between atoms: _516  and  _517
REMARK  219  A    between atoms: _520  and  _522
REMARK  220  A    between atoms: _522  and  _523
REMARK  221  A    between atoms: _522  and  _525
REMARK  222  A    between atoms: _525  and  _526
REMARK  223  A    between atoms: _526  and  _527
REMARK  224  A    between atoms: _527  and  _528
REMARK  225  A    between atoms: _528  and  _529
REMARK  226  A    between atoms: _533  and  _535
REMARK  227  A    between atoms: _535  and  _536
REMARK  228  A    between atoms: _535  and  _538
REMARK  229  A    between atoms: _538  and  _539
REMARK  230  A    between atoms: _542  and  _544
REMARK  231  A    between atoms: _544  and  _545
REMARK  232  A    between atoms: _548  and  _550
REMARK  233  A    between atoms: _550  and  _551
REMARK  234  A    between atoms: _550  and  _553
REMARK  235  A    between atoms: _553  and  _554
REMARK  236  A    between atoms: _557  and  _559
REMARK  237  A    between atoms: _559  and  _560
REMARK  238  A    between atoms: _559  and  _562
REMARK  239  A    between atoms: _562  and  _563
REMARK  240  A    between atoms: _569  and  _571
REMARK  241  A    between atoms: _571  and  _572
REMARK  242  A    between atoms: _574  and  _576
REMARK  243  A    between atoms: _576  and  _577
REMARK  244  A    between atoms: _576  and  _579
REMARK  245  A    between atoms: _579  and  _580
REMARK                            x       y       z     vdW  Elec       q    Type
REMARK                         _______ _______ _______ _____ _____    ______ ____
ROOT
ATOM      1  O   HOH     1     -13.936 -11.971   5.942  0.00  0.00    +0.000 OA
ENDROOT
TORSDOF 0
REMARK  Name = ../refined-set-2016/4rwj/4rwj_pocket.pdb
REMARK  245 active torsions:
REMARK  status: ('A' for Active; 'I' for Inactive)
REMARK    1  A    between atoms: _1  and  _3
REMARK    2  A    between atoms: _3  and  _4
REMARK    3  A    between atoms: _3  and  _6
REMARK    4  A    between atoms: _6  and  _7
REMARK    5  A    between atoms: _7  and  _8
REMARK    6  A    between atoms: _8  and  _9
REMARK    7  A    between atoms: _9  and  _10
REMARK    8  A    between atoms: _15  and  _16
REMARK    9  A    between atoms: _21  and  _23
REMARK   10  A    between atoms: _23  and  _24
REMARK   11  A    between atoms: _23  and  _26
REMARK   12  A    between atoms: _26  and  _27
REMARK   13  A    between atoms: _30  and  _32
REMARK   14  A    between atoms: _32  and  _33
REMARK   15  A    between atoms: _35  and  _37
REMARK   16  A    between atoms: _37  and  _38
REMARK   17  A    between atoms: _37  and  _40
REMARK   18  A    between atoms: _40  and  _41
REMARK   19  A    between atoms: _41  and  _42
REMARK   20  A    between atoms: _45  and  _47
REMARK   21  A    between atoms: _47  and  _48
REMARK   22  A    between atoms: _50  and  _52
REMARK   23  A    between atoms: _52  and  _53
REMARK   24  A    between atoms: _56  and  _58
REMARK   25  A    between atoms: _58  and  _59
REMARK   26  A    between atoms: _58  and  _61
REMARK   27  A    between atoms: _61  and  _62
REMARK   28  A    between atoms: _68  and  _70
REMARK   29  A    between atoms: _70  and  _71
REMARK   30  A    between atoms: _73  and  _75
REMARK   31  A    between atoms: _75  and  _76
REMARK   32  A    between atoms: _75  and  _78
REMARK   33  A    between atoms: _78  and  _79
REMARK   34  A    between atoms: _79  and  _80
REMARK   35  A    between atoms: _85  and  _87
REMARK   36  A    between atoms: _87  and  _88
REMARK   37  A    between atoms: _87  and  _90
REMARK   38  A    between atoms: _93  and  _95
REMARK   39  A    between atoms: _95  and  _96
REMARK   40  A    between atoms: _95  and  _98
REMARK   41  A    between atoms: _101  and  _103
REMARK   42  A    between atoms: _103  and  _104
REMARK   43  A    between atoms: _103  and  _106
REMARK   44  A    between atoms: _106  and  _107
REMARK   45  A    between atoms: _110  and  _112
REMARK   46  A    between atoms: _112  and  _113
REMARK   47  A    between atoms: _112  and  _115
REMARK   48  A    between atoms: _118  and  _120
REMARK   49  A    between atoms: _120  and  _121
REMARK   50  A    between atoms: _124  and  _126
REMARK   51  A    between atoms: _126  and  _127
REMARK   52  A    between atoms: _126  and  _129
REMARK   53  A    between atoms: _132  and  _134
REMARK   54  A    between atoms: _134  and  _135
REMARK   55  A    between atoms: _134  and  _137
REMARK   56  A    between atoms: _137  and  _138
REMARK   57  A    between atoms: _138  and  _139
REMARK   58  A    between atoms: _139  and  _140
REMARK   59  A    between atoms: _140  and  _141
REMARK   60  A    between atoms: _145  and  _147
REMARK   61  A    between atoms: _147  and  _148
REMARK   62  A    between atoms: _147  and  _150
REMARK   63  A    between atoms: _150  and  _151
REMARK   64  A    between atoms: _151  and  _152
REMARK   65  A    between atoms: _154  and  _156
REMARK   66  A    between atoms: _156  and  _157
REMARK   67  A    between atoms: _156  and  _159
REMARK   68  A    between atoms: _159  and  _160
REMARK   69  A    between atoms: _163  and  _165
REMARK   70  A    between atoms: _165  and  _166
REMARK   71  A    between atoms: _165  and  _168
REMARK   72  A    between atoms: _168  and  _169
REMARK   73  A    between atoms: _172  and  _174
REMARK   74  A    between atoms: _174  and  _175
REMARK   75  A    between atoms: _174  and  _177
REMARK   76  A    between atoms: _177  and  _178
REMARK   77  A    between atoms: _178  and  _179
REMARK   78  A    between atoms: _182  and  _184
REMARK   79  A    between atoms: _184  and  _185
REMARK   80  A    between atoms: _184  and  _187
REMARK   81  A    between atoms: _187  and  _188
REMARK   82  A    between atoms: _188  and  _189
REMARK   83  A    between atoms: _191  and  _193
REMARK   84  A    between atoms: _193  and  _194
REMARK   85  A    between atoms: _193  and  _196
REMARK   86  A    between atoms: _196  and  _197
REMARK   87  A    between atoms: _197  and  _198
REMARK   88  A    between atoms: _200  and  _202
REMARK   89  A    between atoms: _202  and  _203
REMARK   90  A    between atoms: _202  and  _205
REMARK   91  A    between atoms: _205  and  _206
REMARK   92  A    between atoms: _209  and  _211
REMARK   93  A    between atoms: _211  and  _212
REMARK   94  A    between atoms: _211  and  _214
REMARK   95  A    between atoms: _214  and  _215
REMARK   96  A    between atoms: _218  and  _220
REMARK   97  A    between atoms: _220  and  _221
REMARK   98  A    between atoms: _220  and  _223
REMARK   99  A    between atoms: _223  and  _224
REMARK  100  A    between atoms: _229  and  _231
REMARK  101  A    between atoms: _231  and  _232
REMARK  102  A    between atoms: _231  and  _234
REMARK  103  A    between atoms: _234  and  _235
REMARK  104  A    between atoms: _238  and  _240
REMARK  105  A    between atoms: _240  and  _241
REMARK  106  A    between atoms: _240  and  _243
REMARK  107  A    between atoms: _243  and  _244
REMARK  108  A    between atoms: _247  and  _249
REMARK  109  A    between atoms: _249  and  _250
REMARK  110  A    between atoms: _252  and  _254
REMARK  111  A    between atoms: _254  and  _255
REMARK  112  A    between atoms: _254  and  _257
REMARK  113  A    between atoms: _257  and  _258
REMARK  114  A    between atoms: _263  and  _264
REMARK  115  A    between atoms: _266  and  _268
REMARK  116  A    between atoms: _268  and  _269
REMARK  117  A    between atoms: _268  and  _271
REMARK  118  A    between atoms: _274  and  _276
REMARK  119  A    between atoms: _276  and  _277
REMARK  120  A    between atoms: _276  and  _279
REMARK  121  A    between atoms: _279  and  _280
REMARK  122  A    between atoms: _283  and  _285
REMARK  123  A    between atoms: _285  and  _286
REMARK  124  A    between atoms: _285  and  _288
REMARK  125  A    between atoms: _291  and  _293
REMARK  126  A    between atoms: _293  and  _294
REMARK  127  A    between atoms: _293  and  _296
REMARK  128  A    between atoms: _296  and  _297
REMARK  129  A    between atoms: _297  and  _298
REMARK  130  A    between atoms: _301  and  _303
REMARK  131  A    between atoms: _303  and  _304
REMARK  132  A    between atoms: _303  and  _306
REMARK  133  A    between atoms: _306  and  _307
REMARK  134  A    between atoms: _312  and  _313
REMARK  135  A    between atoms: _315  and  _317
REMARK  136  A    between atoms: _317  and  _318
REMARK  137  A    between atoms: _321  and  _323
REMARK  138  A    between atoms: _323  and  _324
REMARK  139  A    between atoms: _323  and  _326
REMARK  140  A    between atoms: _326  and  _327
REMARK  141  A    between atoms: _329  and  _331
REMARK  142  A    between atoms: _331  and  _332
REMARK  143  A    between atoms: _331  and  _334
REMARK  144  A    between atoms: _334  and  _335
REMARK  145  A    between atoms: _335  and  _336
REMARK  146  A    between atoms: _336  and  _337
REMARK  147  A    between atoms: _337  and  _338
REMARK  148  A    between atoms: _342  and  _344
REMARK  149  A    between atoms: _344  and  _345
REMARK  150  A    between atoms: _347  and  _349
REMARK  151  A    between atoms: _349  and  _350
REMARK  152  A    between atoms: _349  and  _352
REMARK  153  A    between atoms: _352  and  _353
REMARK  154  A    between atoms: _358  and  _360
REMARK  155  A    between atoms: _360  and  _361
REMARK  156  A    between atoms: _360  and  _363
REMARK  157  A    between atoms: _363  and  _364
REMARK  158  A    between atoms: _364  and  _365
REMARK  159  A    between atoms: _368  and  _370
REMARK  160  A    between atoms: _370  and  _371
REMARK  161  A    between atoms: _370  and  _373
REMARK  162  A    between atoms: _373  and  _374
REMARK  163  A    between atoms: _379  and  _380
REMARK  164  A    between atoms: _382  and  _384
REMARK  165  A    between atoms: _384  and  _385
REMARK  166  A    between atoms: _388  and  _390
REMARK  167  A    between atoms: _390  and  _391
REMARK  168  A    between atoms: _390  and  _393
REMARK  169  A    between atoms: _393  and  _394
REMARK  170  A    between atoms: _394  and  _395
REMARK  171  A    between atoms: _395  and  _396
REMARK  172  A    between atoms: _405  and  _407
REMARK  173  A    between atoms: _407  and  _408
REMARK  174  A    between atoms: _407  and  _410
REMARK  175  A    between atoms: _410  and  _411
REMARK  176  A    between atoms: _413  and  _415
REMARK  177  A    between atoms: _415  and  _416
REMARK  178  A    between atoms: _415  and  _418
REMARK  179  A    between atoms: _418  and  _419
REMARK  180  A    between atoms: _424  and  _426
REMARK  181  A    between atoms: _426  and  _427
REMARK  182  A    between atoms: _426  and  _429
REMARK  183  A    between atoms: _429  and  _430
REMARK  184  A    between atoms: _435  and  _437
REMARK  185  A    between atoms: _437  and  _438
REMARK  186  A    between atoms: _437  and  _440
REMARK  187  A    between atoms: _440  and  _441
REMARK  188  A    between atoms: _441  and  _442
REMARK  189  A    between atoms: _445  and  _447
REMARK  190  A    between atoms: _447  and  _448
REMARK  191  A    between atoms: _447  and  _450
REMARK  192  A    between atoms: _450  and  _451
REMARK  193  A    between atoms: _456  and  _458
REMARK  194  A    between atoms: _458  and  _459
REMARK  195  A    between atoms: _458  and  _461
REMARK  196  A    between atoms: _461  and  _462
REMARK  197  A    between atoms: _462  and  _463
REMARK  198  A    between atoms: _463  and  _464
REMARK  199  A    between atoms: _473  and  _475
REMARK  200  A    between atoms: _475  and  _476
REMARK  201  A    between atoms: _475  and  _478
REMARK  202  A    between atoms: _478  and  _479
REMARK  203  A    between atoms: _484  and  _486
REMARK  204  A    between atoms: _486  and  _487
REMARK  205  A    between atoms: _486  and  _489
REMARK  206  A    between atoms: _489  and  _490
REMARK  207  A    between atoms: _493  and  _495
REMARK  208  A    between atoms: _495  and  _496
REMARK  209  A    between atoms: _495  and  _498
REMARK  210  A    between atoms: _501  and  _503
REMARK  211  A    between atoms: _503  and  _504
REMARK  212  A    between atoms: _503  and  _506
REMARK  213  A    between atoms: _506  and  _507
REMARK  214  A    between atoms: _510  and  _512
REMARK  215  A    between atoms: _512  and  _513
REMARK  216  A    between atoms: _512  and  _515
REMARK  217  A    between atoms: _515  and  _516
REMARK  218  A    between atoms: _516  and  _517
REMARK  219  A    between atoms: _520  and  _522
REMARK  220  A    between atoms: _522  and  _523
REMARK  221  A    between atoms: _522  and  _525
REMARK  222  A    between atoms: _525  and  _526
REMARK  223  A    between atoms: _526  and  _527
REMARK  224  A    between atoms: _527  and  _528
REMARK  225  A    between atoms: _528  and  _529
REMARK  226  A    between atoms: _533  and  _535
REMARK  227  A    between atoms: _535  and  _536
REMARK  228  A    between atoms: _535  and  _538
REMARK  229  A    between atoms: _538  and  _539
REMARK  230  A    between atoms: _542  and  _544
REMARK  231  A    between atoms: _544  and  _545
REMARK  232  A    between atoms: _548  and  _550
REMARK  233  A    between atoms: _550  and  _551
REMARK  234  A    between atoms: _550  and  _553
REMARK  235  A    between atoms: _553  and  _554
REMARK  236  A    between atoms: _557  and  _559
REMARK  237  A    between atoms: _559  and  _560
REMARK  238  A    between atoms: _559  and  _562
REMARK  239  A    between atoms: _562  and  _563
REMARK  240  A    between atoms: _569  and  _571
REMARK  241  A    between atoms: _571  and  _572
REMARK  242  A    between atoms: _574  and  _576
REMARK  243  A    between atoms: _576  and  _577
REMARK  244  A    between atoms: _576  and  _579
REMARK  245  A    between atoms: _579  and  _580
REMARK                            x       y       z     vdW  Elec       q    Type
REMARK                         _______ _______ _______ _____ _____    ______ ____
ROOT
ATOM      1  O   HOH     1     -19.450   0.703  17.553  0.00  0.00    +0.000 OA
ENDROOT
TORSDOF 0
REMARK  Name = ../refined-set-2016/4rwj/4rwj_pocket.pdb
REMARK  245 active torsions:
REMARK  status: ('A' for Active; 'I' for Inactive)
REMARK    1  A    between atoms: _1  and  _3
REMARK    2  A    between atoms: _3  and  _4
REMARK    3  A    between atoms: _3  and  _6
REMARK    4  A    between atoms: _6  and  _7
REMARK    5  A    between atoms: _7  and  _8
REMARK    6  A    between atoms: _8  and  _9
REMARK    7  A    between atoms: _9  and  _10
REMARK    8  A    between atoms: _15  and  _16
REMARK    9  A    between atoms: _21  and  _23
REMARK   10  A    between atoms: _23  and  _24
REMARK   11  A    between atoms: _23  and  _26
REMARK   12  A    between atoms: _26  and  _27
REMARK   13  A    between atoms: _30  and  _32
REMARK   14  A    between atoms: _32  and  _33
REMARK   15  A    between atoms: _35  and  _37
REMARK   16  A    between atoms: _37  and  _38
REMARK   17  A    between atoms: _37  and  _40
REMARK   18  A    between atoms: _40  and  _41
REMARK   19  A    between atoms: _41  and  _42
REMARK   20  A    between atoms: _45  and  _47
REMARK   21  A    between atoms: _47  and  _48
REMARK   22  A    between atoms: _50  and  _52
REMARK   23  A    between atoms: _52  and  _53
REMARK   24  A    between atoms: _56  and  _58
REMARK   25  A    between atoms: _58  and  _59
REMARK   26  A    between atoms: _58  and  _61
REMARK   27  A    between atoms: _61  and  _62
REMARK   28  A    between atoms: _68  and  _70
REMARK   29  A    between atoms: _70  and  _71
REMARK   30  A    between atoms: _73  and  _75
REMARK   31  A    between atoms: _75  and  _76
REMARK   32  A    between atoms: _75  and  _78
REMARK   33  A    between atoms: _78  and  _79
REMARK   34  A    between atoms: _79  and  _80
REMARK   35  A    between atoms: _85  and  _87
REMARK   36  A    between atoms: _87  and  _88
REMARK   37  A    between atoms: _87  and  _90
REMARK   38  A    between atoms: _93  and  _95
REMARK   39  A    between atoms: _95  and  _96
REMARK   40  A    between atoms: _95  and  _98
REMARK   41  A    between atoms: _101  and  _103
REMARK   42  A    between atoms: _103  and  _104
REMARK   43  A    between atoms: _103  and  _106
REMARK   44  A    between atoms: _106  and  _107
REMARK   45  A    between atoms: _110  and  _112
REMARK   46  A    between atoms: _112  and  _113
REMARK   47  A    between atoms: _112  and  _115
REMARK   48  A    between atoms: _118  and  _120
REMARK   49  A    between atoms: _120  and  _121
REMARK   50  A    between atoms: _124  and  _126
REMARK   51  A    between atoms: _126  and  _127
REMARK   52  A    between atoms: _126  and  _129
REMARK   53  A    between atoms: _132  and  _134
REMARK   54  A    between atoms: _134  and  _135
REMARK   55  A    between atoms: _134  and  _137
REMARK   56  A    between atoms: _137  and  _138
REMARK   57  A    between atoms: _138  and  _139
REMARK   58  A    between atoms: _139  and  _140
REMARK   59  A    between atoms: _140  and  _141
REMARK   60  A    between atoms: _145  and  _147
REMARK   61  A    between atoms: _147  and  _148
REMARK   62  A    between atoms: _147  and  _150
REMARK   63  A    between atoms: _150  and  _151
REMARK   64  A    between atoms: _151  and  _152
REMARK   65  A    between atoms: _154  and  _156
REMARK   66  A    between atoms: _156  and  _157
REMARK   67  A    between atoms: _156  and  _159
REMARK   68  A    between atoms: _159  and  _160
REMARK   69  A    between atoms: _163  and  _165
REMARK   70  A    between atoms: _165  and  _166
REMARK   71  A    between atoms: _165  and  _168
REMARK   72  A    between atoms: _168  and  _169
REMARK   73  A    between atoms: _172  and  _174
REMARK   74  A    between atoms: _174  and  _175
REMARK   75  A    between atoms: _174  and  _177
REMARK   76  A    between atoms: _177  and  _178
REMARK   77  A    between atoms: _178  and  _179
REMARK   78  A    between atoms: _182  and  _184
REMARK   79  A    between atoms: _184  and  _185
REMARK   80  A    between atoms: _184  and  _187
REMARK   81  A    between atoms: _187  and  _188
REMARK   82  A    between atoms: _188  and  _189
REMARK   83  A    between atoms: _191  and  _193
REMARK   84  A    between atoms: _193  and  _194
REMARK   85  A    between atoms: _193  and  _196
REMARK   86  A    between atoms: _196  and  _197
REMARK   87  A    between atoms: _197  and  _198
REMARK   88  A    between atoms: _200  and  _202
REMARK   89  A    between atoms: _202  and  _203
REMARK   90  A    between atoms: _202  and  _205
REMARK   91  A    between atoms: _205  and  _206
REMARK   92  A    between atoms: _209  and  _211
REMARK   93  A    between atoms: _211  and  _212
REMARK   94  A    between atoms: _211  and  _214
REMARK   95  A    between atoms: _214  and  _215
REMARK   96  A    between atoms: _218  and  _220
REMARK   97  A    between atoms: _220  and  _221
REMARK   98  A    between atoms: _220  and  _223
REMARK   99  A    between atoms: _223  and  _224
REMARK  100  A    between atoms: _229  and  _231
REMARK  101  A    between atoms: _231  and  _232
REMARK  102  A    between atoms: _231  and  _234
REMARK  103  A    between atoms: _234  and  _235
REMARK  104  A    between atoms: _238  and  _240
REMARK  105  A    between atoms: _240  and  _241
REMARK  106  A    between atoms: _240  and  _243
REMARK  107  A    between atoms: _243  and  _244
REMARK  108  A    between atoms: _247  and  _249
REMARK  109  A    between atoms: _249  and  _250
REMARK  110  A    between atoms: _252  and  _254
REMARK  111  A    between atoms: _254  and  _255
REMARK  112  A    between atoms: _254  and  _257
REMARK  113  A    between atoms: _257  and  _258
REMARK  114  A    between atoms: _263  and  _264
REMARK  115  A    between atoms: _266  and  _268
REMARK  116  A    between atoms: _268  and  _269
REMARK  117  A    between atoms: _268  and  _271
REMARK  118  A    between atoms: _274  and  _276
REMARK  119  A    between atoms: _276  and  _277
REMARK  120  A    between atoms: _276  and  _279
REMARK  121  A    between atoms: _279  and  _280
REMARK  122  A    between atoms: _283  and  _285
REMARK  123  A    between atoms: _285  and  _286
REMARK  124  A    between atoms: _285  and  _288
REMARK  125  A    between atoms: _291  and  _293
REMARK  126  A    between atoms: _293  and  _294
REMARK  127  A    between atoms: _293  and  _296
REMARK  128  A    between atoms: _296  and  _297
REMARK  129  A    between atoms: _297  and  _298
REMARK  130  A    between atoms: _301  and  _303
REMARK  131  A    between atoms: _303  and  _304
REMARK  132  A    between atoms: _303  and  _306
REMARK  133  A    between atoms: _306  and  _307
REMARK  134  A    between atoms: _312  and  _313
REMARK  135  A    between atoms: _315  and  _317
REMARK  136  A    between atoms: _317  and  _318
REMARK  137  A    between atoms: _321  and  _323
REMARK  138  A    between atoms: _323  and  _324
REMARK  139  A    between atoms: _323  and  _326
REMARK  140  A    between atoms: _326  and  _327
REMARK  141  A    between atoms: _329  and  _331
REMARK  142  A    between atoms: _331  and  _332
REMARK  143  A    between atoms: _331  and  _334
REMARK  144  A    between atoms: _334  and  _335
REMARK  145  A    between atoms: _335  and  _336
REMARK  146  A    between atoms: _336  and  _337
REMARK  147  A    between atoms: _337  and  _338
REMARK  148  A    between atoms: _342  and  _344
REMARK  149  A    between atoms: _344  and  _345
REMARK  150  A    between atoms: _347  and  _349
REMARK  151  A    between atoms: _349  and  _350
REMARK  152  A    between atoms: _349  and  _352
REMARK  153  A    between atoms: _352  and  _353
REMARK  154  A    between atoms: _358  and  _360
REMARK  155  A    between atoms: _360  and  _361
REMARK  156  A    between atoms: _360  and  _363
REMARK  157  A    between atoms: _363  and  _364
REMARK  158  A    between atoms: _364  and  _365
REMARK  159  A    between atoms: _368  and  _370
REMARK  160  A    between atoms: _370  and  _371
REMARK  161  A    between atoms: _370  and  _373
REMARK  162  A    between atoms: _373  and  _374
REMARK  163  A    between atoms: _379  and  _380
REMARK  164  A    between atoms: _382  and  _384
REMARK  165  A    between atoms: _384  and  _385
REMARK  166  A    between atoms: _388  and  _390
REMARK  167  A    between atoms: _390  and  _391
REMARK  168  A    between atoms: _390  and  _393
REMARK  169  A    between atoms: _393  and  _394
REMARK  170  A    between atoms: _394  and  _395
REMARK  171  A    between atoms: _395  and  _396
REMARK  172  A    between atoms: _405  and  _407
REMARK  173  A    between atoms: _407  and  _408
REMARK  174  A    between atoms: _407  and  _410
REMARK  175  A    between atoms: _410  and  _411
REMARK  176  A    between atoms: _413  and  _415
REMARK  177  A    between atoms: _415  and  _416
REMARK  178  A    between atoms: _415  and  _418
REMARK  179  A    between atoms: _418  and  _419
REMARK  180  A    between atoms: _424  and  _426
REMARK  181  A    between atoms: _426  and  _427
REMARK  182  A    between atoms: _426  and  _429
REMARK  183  A    between atoms: _429  and  _430
REMARK  184  A    between atoms: _435  and  _437
REMARK  185  A    between atoms: _437  and  _438
REMARK  186  A    between atoms: _437  and  _440
REMARK  187  A    between atoms: _440  and  _441
REMARK  188  A    between atoms: _441  and  _442
REMARK  189  A    between atoms: _445  and  _447
REMARK  190  A    between atoms: _447  and  _448
REMARK  191  A    between atoms: _447  and  _450
REMARK  192  A    between atoms: _450  and  _451
REMARK  193  A    between atoms: _456  and  _458
REMARK  194  A    between atoms: _458  and  _459
REMARK  195  A    between atoms: _458  and  _461
REMARK  196  A    between atoms: _461  and  _462
REMARK  197  A    between atoms: _462  and  _463
REMARK  198  A    between atoms: _463  and  _464
REMARK  199  A    between atoms: _473  and  _475
REMARK  200  A    between atoms: _475  and  _476
REMARK  201  A    between atoms: _475  and  _478
REMARK  202  A    between atoms: _478  and  _479
REMARK  203  A    between atoms: _484  and  _486
REMARK  204  A    between atoms: _486  and  _487
REMARK  205  A    between atoms: _486  and  _489
REMARK  206  A    between atoms: _489  and  _490
REMARK  207  A    between atoms: _493  and  _495
REMARK  208  A    between atoms: _495  and  _496
REMARK  209  A    between atoms: _495  and  _498
REMARK  210  A    between atoms: _501  and  _503
REMARK  211  A    between atoms: _503  and  _504
REMARK  212  A    between atoms: _503  and  _506
REMARK  213  A    between atoms: _506  and  _507
REMARK  214  A    between atoms: _510  and  _512
REMARK  215  A    between atoms: _512  and  _513
REMARK  216  A    between atoms: _512  and  _515
REMARK  217  A    between atoms: _515  and  _516
REMARK  218  A    between atoms: _516  and  _517
REMARK  219  A    between atoms: _520  and  _522
REMARK  220  A    between atoms: _522  and  _523
REMARK  221  A    between atoms: _522  and  _525
REMARK  222  A    between atoms: _525  and  _526
REMARK  223  A    between atoms: _526  and  _527
REMARK  224  A    between atoms: _527  and  _528
REMARK  225  A    between atoms: _528  and  _529
REMARK  226  A    between atoms: _533  and  _535
REMARK  227  A    between atoms: _535  and  _536
REMARK  228  A    between atoms: _535  and  _538
REMARK  229  A    between atoms: _538  and  _539
REMARK  230  A    between atoms: _542  and  _544
REMARK  231  A    between atoms: _544  and  _545
REMARK  232  A    between atoms: _548  and  _550
REMARK  233  A    between atoms: _550  and  _551
REMARK  234  A    between atoms: _550  and  _553
REMARK  235  A    between atoms: _553  and  _554
REMARK  236  A    between atoms: _557  and  _559
REMARK  237  A    between atoms: _559  and  _560
REMARK  238  A    between atoms: _559  and  _562
REMARK  239  A    between atoms: _562  and  _563
REMARK  240  A    between atoms: _569  and  _571
REMARK  241  A    between atoms: _571  and  _572
REMARK  242  A    between atoms: _574  and  _576
REMARK  243  A    between atoms: _576  and  _577
REMARK  244  A    between atoms: _576  and  _579
REMARK  245  A    between atoms: _579  and  _580
REMARK                            x       y       z     vdW  Elec       q    Type
REMARK                         _______ _______ _______ _____ _____    ______ ____
ROOT
ATOM      1  O   HOH     1     -29.052  -0.526  16.399  0.00  0.00    +0.000 OA
ENDROOT
TORSDOF 0
REMARK  Name = ../refined-set-2016/4rwj/4rwj_pocket.pdb
REMARK  245 active torsions:
REMARK  status: ('A' for Active; 'I' for Inactive)
REMARK    1  A    between atoms: _1  and  _3
REMARK    2  A    between atoms: _3  and  _4
REMARK    3  A    between atoms: _3  and  _6
REMARK    4  A    between atoms: _6  and  _7
REMARK    5  A    between atoms: _7  and  _8
REMARK    6  A    between atoms: _8  and  _9
REMARK    7  A    between atoms: _9  and  _10
REMARK    8  A    between atoms: _15  and  _16
REMARK    9  A    between atoms: _21  and  _23
REMARK   10  A    between atoms: _23  and  _24
REMARK   11  A    between atoms: _23  and  _26
REMARK   12  A    between atoms: _26  and  _27
REMARK   13  A    between atoms: _30  and  _32
REMARK   14  A    between atoms: _32  and  _33
REMARK   15  A    between atoms: _35  and  _37
REMARK   16  A    between atoms: _37  and  _38
REMARK   17  A    between atoms: _37  and  _40
REMARK   18  A    between atoms: _40  and  _41
REMARK   19  A    between atoms: _41  and  _42
REMARK   20  A    between atoms: _45  and  _47
REMARK   21  A    between atoms: _47  and  _48
REMARK   22  A    between atoms: _50  and  _52
REMARK   23  A    between atoms: _52  and  _53
REMARK   24  A    between atoms: _56  and  _58
REMARK   25  A    between atoms: _58  and  _59
REMARK   26  A    between atoms: _58  and  _61
REMARK   27  A    between atoms: _61  and  _62
REMARK   28  A    between atoms: _68  and  _70
REMARK   29  A    between atoms: _70  and  _71
REMARK   30  A    between atoms: _73  and  _75
REMARK   31  A    between atoms: _75  and  _76
REMARK   32  A    between atoms: _75  and  _78
REMARK   33  A    between atoms: _78  and  _79
REMARK   34  A    between atoms: _79  and  _80
REMARK   35  A    between atoms: _85  and  _87
REMARK   36  A    between atoms: _87  and  _88
REMARK   37  A    between atoms: _87  and  _90
REMARK   38  A    between atoms: _93  and  _95
REMARK   39  A    between atoms: _95  and  _96
REMARK   40  A    between atoms: _95  and  _98
REMARK   41  A    between atoms: _101  and  _103
REMARK   42  A    between atoms: _103  and  _104
REMARK   43  A    between atoms: _103  and  _106
REMARK   44  A    between atoms: _106  and  _107
REMARK   45  A    between atoms: _110  and  _112
REMARK   46  A    between atoms: _112  and  _113
REMARK   47  A    between atoms: _112  and  _115
REMARK   48  A    between atoms: _118  and  _120
REMARK   49  A    between atoms: _120  and  _121
REMARK   50  A    between atoms: _124  and  _126
REMARK   51  A    between atoms: _126  and  _127
REMARK   52  A    between atoms: _126  and  _129
REMARK   53  A    between atoms: _132  and  _134
REMARK   54  A    between atoms: _134  and  _135
REMARK   55  A    between atoms: _134  and  _137
REMARK   56  A    between atoms: _137  and  _138
REMARK   57  A    between atoms: _138  and  _139
REMARK   58  A    between atoms: _139  and  _140
REMARK   59  A    between atoms: _140  and  _141
REMARK   60  A    between atoms: _145  and  _147
REMARK   61  A    between atoms: _147  and  _148
REMARK   62  A    between atoms: _147  and  _150
REMARK   63  A    between atoms: _150  and  _151
REMARK   64  A    between atoms: _151  and  _152
REMARK   65  A    between atoms: _154  and  _156
REMARK   66  A    between atoms: _156  and  _157
REMARK   67  A    between atoms: _156  and  _159
REMARK   68  A    between atoms: _159  and  _160
REMARK   69  A    between atoms: _163  and  _165
REMARK   70  A    between atoms: _165  and  _166
REMARK   71  A    between atoms: _165  and  _168
REMARK   72  A    between atoms: _168  and  _169
REMARK   73  A    between atoms: _172  and  _174
REMARK   74  A    between atoms: _174  and  _175
REMARK   75  A    between atoms: _174  and  _177
REMARK   76  A    between atoms: _177  and  _178
REMARK   77  A    between atoms: _178  and  _179
REMARK   78  A    between atoms: _182  and  _184
REMARK   79  A    between atoms: _184  and  _185
REMARK   80  A    between atoms: _184  and  _187
REMARK   81  A    between atoms: _187  and  _188
REMARK   82  A    between atoms: _188  and  _189
REMARK   83  A    between atoms: _191  and  _193
REMARK   84  A    between atoms: _193  and  _194
REMARK   85  A    between atoms: _193  and  _196
REMARK   86  A    between atoms: _196  and  _197
REMARK   87  A    between atoms: _197  and  _198
REMARK   88  A    between atoms: _200  and  _202
REMARK   89  A    between atoms: _202  and  _203
REMARK   90  A    between atoms: _202  and  _205
REMARK   91  A    between atoms: _205  and  _206
REMARK   92  A    between atoms: _209  and  _211
REMARK   93  A    between atoms: _211  and  _212
REMARK   94  A    between atoms: _211  and  _214
REMARK   95  A    between atoms: _214  and  _215
REMARK   96  A    between atoms: _218  and  _220
REMARK   97  A    between atoms: _220  and  _221
REMARK   98  A    between atoms: _220  and  _223
REMARK   99  A    between atoms: _223  and  _224
REMARK  100  A    between atoms: _229  and  _231
REMARK  101  A    between atoms: _231  and  _232
REMARK  102  A    between atoms: _231  and  _234
REMARK  103  A    between atoms: _234  and  _235
REMARK  104  A    between atoms: _238  and  _240
REMARK  105  A    between atoms: _240  and  _241
REMARK  106  A    between atoms: _240  and  _243
REMARK  107  A    between atoms: _243  and  _244
REMARK  108  A    between atoms: _247  and  _249
REMARK  109  A    between atoms: _249  and  _250
REMARK  110  A    between atoms: _252  and  _254
REMARK  111  A    between atoms: _254  and  _255
REMARK  112  A    between atoms: _254  and  _257
REMARK  113  A    between atoms: _257  and  _258
REMARK  114  A    between atoms: _263  and  _264
REMARK  115  A    between atoms: _266  and  _268
REMARK  116  A    between atoms: _268  and  _269
REMARK  117  A    between atoms: _268  and  _271
REMARK  118  A    between atoms: _274  and  _276
REMARK  119  A    between atoms: _276  and  _277
REMARK  120  A    between atoms: _276  and  _279
REMARK  121  A    between atoms: _279  and  _280
REMARK  122  A    between atoms: _283  and  _285
REMARK  123  A    between atoms: _285  and  _286
REMARK  124  A    between atoms: _285  and  _288
REMARK  125  A    between atoms: _291  and  _293
REMARK  126  A    between atoms: _293  and  _294
REMARK  127  A    between atoms: _293  and  _296
REMARK  128  A    between atoms: _296  and  _297
REMARK  129  A    between atoms: _297  and  _298
REMARK  130  A    between atoms: _301  and  _303
REMARK  131  A    between atoms: _303  and  _304
REMARK  132  A    between atoms: _303  and  _306
REMARK  133  A    between atoms: _306  and  _307
REMARK  134  A    between atoms: _312  and  _313
REMARK  135  A    between atoms: _315  and  _317
REMARK  136  A    between atoms: _317  and  _318
REMARK  137  A    between atoms: _321  and  _323
REMARK  138  A    between atoms: _323  and  _324
REMARK  139  A    between atoms: _323  and  _326
REMARK  140  A    between atoms: _326  and  _327
REMARK  141  A    between atoms: _329  and  _331
REMARK  142  A    between atoms: _331  and  _332
REMARK  143  A    between atoms: _331  and  _334
REMARK  144  A    between atoms: _334  and  _335
REMARK  145  A    between atoms: _335  and  _336
REMARK  146  A    between atoms: _336  and  _337
REMARK  147  A    between atoms: _337  and  _338
REMARK  148  A    between atoms: _342  and  _344
REMARK  149  A    between atoms: _344  and  _345
REMARK  150  A    between atoms: _347  and  _349
REMARK  151  A    between atoms: _349  and  _350
REMARK  152  A    between atoms: _349  and  _352
REMARK  153  A    between atoms: _352  and  _353
REMARK  154  A    between atoms: _358  and  _360
REMARK  155  A    between atoms: _360  and  _361
REMARK  156  A    between atoms: _360  and  _363
REMARK  157  A    between atoms: _363  and  _364
REMARK  158  A    between atoms: _364  and  _365
REMARK  159  A    between atoms: _368  and  _370
REMARK  160  A    between atoms: _370  and  _371
REMARK  161  A    between atoms: _370  and  _373
REMARK  162  A    between atoms: _373  and  _374
REMARK  163  A    between atoms: _379  and  _380
REMARK  164  A    between atoms: _382  and  _384
REMARK  165  A    between atoms: _384  and  _385
REMARK  166  A    between atoms: _388  and  _390
REMARK  167  A    between atoms: _390  and  _391
REMARK  168  A    between atoms: _390  and  _393
REMARK  169  A    between atoms: _393  and  _394
REMARK  170  A    between atoms: _394  and  _395
REMARK  171  A    between atoms: _395  and  _396
REMARK  172  A    between atoms: _405  and  _407
REMARK  173  A    between atoms: _407  and  _408
REMARK  174  A    between atoms: _407  and  _410
REMARK  175  A    between atoms: _410  and  _411
REMARK  176  A    between atoms: _413  and  _415
REMARK  177  A    between atoms: _415  and  _416
REMARK  178  A    between atoms: _415  and  _418
REMARK  179  A    between atoms: _418  and  _419
REMARK  180  A    between atoms: _424  and  _426
REMARK  181  A    between atoms: _426  and  _427
REMARK  182  A    between atoms: _426  and  _429
REMARK  183  A    between atoms: _429  and  _430
REMARK  184  A    between atoms: _435  and  _437
REMARK  185  A    between atoms: _437  and  _438
REMARK  186  A    between atoms: _437  and  _440
REMARK  187  A    between atoms: _440  and  _441
REMARK  188  A    between atoms: _441  and  _442
REMARK  189  A    between atoms: _445  and  _447
REMARK  190  A    between atoms: _447  and  _448
REMARK  191  A    between atoms: _447  and  _450
REMARK  192  A    between atoms: _450  and  _451
REMARK  193  A    between atoms: _456  and  _458
REMARK  194  A    between atoms: _458  and  _459
REMARK  195  A    between atoms: _458  and  _461
REMARK  196  A    between atoms: _461  and  _462
REMARK  197  A    between atoms: _462  and  _463
REMARK  198  A    between atoms: _463  and  _464
REMARK  199  A    between atoms: _473  and  _475
REMARK  200  A    between atoms: _475  and  _476
REMARK  201  A    between atoms: _475  and  _478
REMARK  202  A    between atoms: _478  and  _479
REMARK  203  A    between atoms: _484  and  _486
REMARK  204  A    between atoms: _486  and  _487
REMARK  205  A    between atoms: _486  and  _489
REMARK  206  A    between atoms: _489  and  _490
REMARK  207  A    between atoms: _493  and  _495
REMARK  208  A    between atoms: _495  and  _496
REMARK  209  A    between atoms: _495  and  _498
REMARK  210  A    between atoms: _501  and  _503
REMARK  211  A    between atoms: _503  and  _504
REMARK  212  A    between atoms: _503  and  _506
REMARK  213  A    between atoms: _506  and  _507
REMARK  214  A    between atoms: _510  and  _512
REMARK  215  A    between atoms: _512  and  _513
REMARK  216  A    between atoms: _512  and  _515
REMARK  217  A    between atoms: _515  and  _516
REMARK  218  A    between atoms: _516  and  _517
REMARK  219  A    between atoms: _520  and  _522
REMARK  220  A    between atoms: _522  and  _523
REMARK  221  A    between atoms: _522  and  _525
REMARK  222  A    between atoms: _525  and  _526
REMARK  223  A    between atoms: _526  and  _527
REMARK  224  A    between atoms: _527  and  _528
REMARK  225  A    between atoms: _528  and  _529
REMARK  226  A    between atoms: _533  and  _535
REMARK  227  A    between atoms: _535  and  _536
REMARK  228  A    between atoms: _535  and  _538
REMARK  229  A    between atoms: _538  and  _539
REMARK  230  A    between atoms: _542  and  _544
REMARK  231  A    between atoms: _544  and  _545
REMARK  232  A    between atoms: _548  and  _550
REMARK  233  A    between atoms: _550  and  _551
REMARK  234  A    between atoms: _550  and  _553
REMARK  235  A    between atoms: _553  and  _554
REMARK  236  A    between atoms: _557  and  _559
REMARK  237  A    between atoms: _559  and  _560
REMARK  238  A    between atoms: _559  and  _562
REMARK  239  A    between atoms: _562  and  _563
REMARK  240  A    between atoms: _569  and  _571
REMARK  241  A    between atoms: _571  and  _572
REMARK  242  A    between atoms: _574  and  _576
REMARK  243  A    between atoms: _576  and  _577
REMARK  244  A    between atoms: _576  and  _579
REMARK  245  A    between atoms: _579  and  _580
REMARK                            x       y       z     vdW  Elec       q    Type
REMARK                         _______ _______ _______ _____ _____    ______ ____
ROOT
ATOM      1  O   HOH     1     -28.857  -2.121  13.977  0.00  0.00    +0.000 OA
ENDROOT
TORSDOF 0
REMARK  Name = ../refined-set-2016/4rwj/4rwj_pocket.pdb
REMARK  245 active torsions:
REMARK  status: ('A' for Active; 'I' for Inactive)
REMARK    1  A    between atoms: _1  and  _3
REMARK    2  A    between atoms: _3  and  _4
REMARK    3  A    between atoms: _3  and  _6
REMARK    4  A    between atoms: _6  and  _7
REMARK    5  A    between atoms: _7  and  _8
REMARK    6  A    between atoms: _8  and  _9
REMARK    7  A    between atoms: _9  and  _10
REMARK    8  A    between atoms: _15  and  _16
REMARK    9  A    between atoms: _21  and  _23
REMARK   10  A    between atoms: _23  and  _24
REMARK   11  A    between atoms: _23  and  _26
REMARK   12  A    between atoms: _26  and  _27
REMARK   13  A    between atoms: _30  and  _32
REMARK   14  A    between atoms: _32  and  _33
REMARK   15  A    between atoms: _35  and  _37
REMARK   16  A    between atoms: _37  and  _38
REMARK   17  A    between atoms: _37  and  _40
REMARK   18  A    between atoms: _40  and  _41
REMARK   19  A    between atoms: _41  and  _42
REMARK   20  A    between atoms: _45  and  _47
REMARK   21  A    between atoms: _47  and  _48
REMARK   22  A    between atoms: _50  and  _52
REMARK   23  A    between atoms: _52  and  _53
REMARK   24  A    between atoms: _56  and  _58
REMARK   25  A    between atoms: _58  and  _59
REMARK   26  A    between atoms: _58  and  _61
REMARK   27  A    between atoms: _61  and  _62
REMARK   28  A    between atoms: _68  and  _70
REMARK   29  A    between atoms: _70  and  _71
REMARK   30  A    between atoms: _73  and  _75
REMARK   31  A    between atoms: _75  and  _76
REMARK   32  A    between atoms: _75  and  _78
REMARK   33  A    between atoms: _78  and  _79
REMARK   34  A    between atoms: _79  and  _80
REMARK   35  A    between atoms: _85  and  _87
REMARK   36  A    between atoms: _87  and  _88
REMARK   37  A    between atoms: _87  and  _90
REMARK   38  A    between atoms: _93  and  _95
REMARK   39  A    between atoms: _95  and  _96
REMARK   40  A    between atoms: _95  and  _98
REMARK   41  A    between atoms: _101  and  _103
REMARK   42  A    between atoms: _103  and  _104
REMARK   43  A    between atoms: _103  and  _106
REMARK   44  A    between atoms: _106  and  _107
REMARK   45  A    between atoms: _110  and  _112
REMARK   46  A    between atoms: _112  and  _113
REMARK   47  A    between atoms: _112  and  _115
REMARK   48  A    between atoms: _118  and  _120
REMARK   49  A    between atoms: _120  and  _121
REMARK   50  A    between atoms: _124  and  _126
REMARK   51  A    between atoms: _126  and  _127
REMARK   52  A    between atoms: _126  and  _129
REMARK   53  A    between atoms: _132  and  _134
REMARK   54  A    between atoms: _134  and  _135
REMARK   55  A    between atoms: _134  and  _137
REMARK   56  A    between atoms: _137  and  _138
REMARK   57  A    between atoms: _138  and  _139
REMARK   58  A    between atoms: _139  and  _140
REMARK   59  A    between atoms: _140  and  _141
REMARK   60  A    between atoms: _145  and  _147
REMARK   61  A    between atoms: _147  and  _148
REMARK   62  A    between atoms: _147  and  _150
REMARK   63  A    between atoms: _150  and  _151
REMARK   64  A    between atoms: _151  and  _152
REMARK   65  A    between atoms: _154  and  _156
REMARK   66  A    between atoms: _156  and  _157
REMARK   67  A    between atoms: _156  and  _159
REMARK   68  A    between atoms: _159  and  _160
REMARK   69  A    between atoms: _163  and  _165
REMARK   70  A    between atoms: _165  and  _166
REMARK   71  A    between atoms: _165  and  _168
REMARK   72  A    between atoms: _168  and  _169
REMARK   73  A    between atoms: _172  and  _174
REMARK   74  A    between atoms: _174  and  _175
REMARK   75  A    between atoms: _174  and  _177
REMARK   76  A    between atoms: _177  and  _178
REMARK   77  A    between atoms: _178  and  _179
REMARK   78  A    between atoms: _182  and  _184
REMARK   79  A    between atoms: _184  and  _185
REMARK   80  A    between atoms: _184  and  _187
REMARK   81  A    between atoms: _187  and  _188
REMARK   82  A    between atoms: _188  and  _189
REMARK   83  A    between atoms: _191  and  _193
REMARK   84  A    between atoms: _193  and  _194
REMARK   85  A    between atoms: _193  and  _196
REMARK   86  A    between atoms: _196  and  _197
REMARK   87  A    between atoms: _197  and  _198
REMARK   88  A    between atoms: _200  and  _202
REMARK   89  A    between atoms: _202  and  _203
REMARK   90  A    between atoms: _202  and  _205
REMARK   91  A    between atoms: _205  and  _206
REMARK   92  A    between atoms: _209  and  _211
REMARK   93  A    between atoms: _211  and  _212
REMARK   94  A    between atoms: _211  and  _214
REMARK   95  A    between atoms: _214  and  _215
REMARK   96  A    between atoms: _218  and  _220
REMARK   97  A    between atoms: _220  and  _221
REMARK   98  A    between atoms: _220  and  _223
REMARK   99  A    between atoms: _223  and  _224
REMARK  100  A    between atoms: _229  and  _231
REMARK  101  A    between atoms: _231  and  _232
REMARK  102  A    between atoms: _231  and  _234
REMARK  103  A    between atoms: _234  and  _235
REMARK  104  A    between atoms: _238  and  _240
REMARK  105  A    between atoms: _240  and  _241
REMARK  106  A    between atoms: _240  and  _243
REMARK  107  A    between atoms: _243  and  _244
REMARK  108  A    between atoms: _247  and  _249
REMARK  109  A    between atoms: _249  and  _250
REMARK  110  A    between atoms: _252  and  _254
REMARK  111  A    between atoms: _254  and  _255
REMARK  112  A    between atoms: _254  and  _257
REMARK  113  A    between atoms: _257  and  _258
REMARK  114  A    between atoms: _263  and  _264
REMARK  115  A    between atoms: _266  and  _268
REMARK  116  A    between atoms: _268  and  _269
REMARK  117  A    between atoms: _268  and  _271
REMARK  118  A    between atoms: _274  and  _276
REMARK  119  A    between atoms: _276  and  _277
REMARK  120  A    between atoms: _276  and  _279
REMARK  121  A    between atoms: _279  and  _280
REMARK  122  A    between atoms: _283  and  _285
REMARK  123  A    between atoms: _285  and  _286
REMARK  124  A    between atoms: _285  and  _288
REMARK  125  A    between atoms: _291  and  _293
REMARK  126  A    between atoms: _293  and  _294
REMARK  127  A    between atoms: _293  and  _296
REMARK  128  A    between atoms: _296  and  _297
REMARK  129  A    between atoms: _297  and  _298
REMARK  130  A    between atoms: _301  and  _303
REMARK  131  A    between atoms: _303  and  _304
REMARK  132  A    between atoms: _303  and  _306
REMARK  133  A    between atoms: _306  and  _307
REMARK  134  A    between atoms: _312  and  _313
REMARK  135  A    between atoms: _315  and  _317
REMARK  136  A    between atoms: _317  and  _318
REMARK  137  A    between atoms: _321  and  _323
REMARK  138  A    between atoms: _323  and  _324
REMARK  139  A    between atoms: _323  and  _326
REMARK  140  A    between atoms: _326  and  _327
REMARK  141  A    between atoms: _329  and  _331
REMARK  142  A    between atoms: _331  and  _332
REMARK  143  A    between atoms: _331  and  _334
REMARK  144  A    between atoms: _334  and  _335
REMARK  145  A    between atoms: _335  and  _336
REMARK  146  A    between atoms: _336  and  _337
REMARK  147  A    between atoms: _337  and  _338
REMARK  148  A    between atoms: _342  and  _344
REMARK  149  A    between atoms: _344  and  _345
REMARK  150  A    between atoms: _347  and  _349
REMARK  151  A    between atoms: _349  and  _350
REMARK  152  A    between atoms: _349  and  _352
REMARK  153  A    between atoms: _352  and  _353
REMARK  154  A    between atoms: _358  and  _360
REMARK  155  A    between atoms: _360  and  _361
REMARK  156  A    between atoms: _360  and  _363
REMARK  157  A    between atoms: _363  and  _364
REMARK  158  A    between atoms: _364  and  _365
REMARK  159  A    between atoms: _368  and  _370
REMARK  160  A    between atoms: _370  and  _371
REMARK  161  A    between atoms: _370  and  _373
REMARK  162  A    between atoms: _373  and  _374
REMARK  163  A    between atoms: _379  and  _380
REMARK  164  A    between atoms: _382  and  _384
REMARK  165  A    between atoms: _384  and  _385
REMARK  166  A    between atoms: _388  and  _390
REMARK  167  A    between atoms: _390  and  _391
REMARK  168  A    between atoms: _390  and  _393
REMARK  169  A    between atoms: _393  and  _394
REMARK  170  A    between atoms: _394  and  _395
REMARK  171  A    between atoms: _395  and  _396
REMARK  172  A    between atoms: _405  and  _407
REMARK  173  A    between atoms: _407  and  _408
REMARK  174  A    between atoms: _407  and  _410
REMARK  175  A    between atoms: _410  and  _411
REMARK  176  A    between atoms: _413  and  _415
REMARK  177  A    between atoms: _415  and  _416
REMARK  178  A    between atoms: _415  and  _418
REMARK  179  A    between atoms: _418  and  _419
REMARK  180  A    between atoms: _424  and  _426
REMARK  181  A    between atoms: _426  and  _427
REMARK  182  A    between atoms: _426  and  _429
REMARK  183  A    between atoms: _429  and  _430
REMARK  184  A    between atoms: _435  and  _437
REMARK  185  A    between atoms: _437  and  _438
REMARK  186  A    between atoms: _437  and  _440
REMARK  187  A    between atoms: _440  and  _441
REMARK  188  A    between atoms: _441  and  _442
REMARK  189  A    between atoms: _445  and  _447
REMARK  190  A    between atoms: _447  and  _448
REMARK  191  A    between atoms: _447  and  _450
REMARK  192  A    between atoms: _450  and  _451
REMARK  193  A    between atoms: _456  and  _458
REMARK  194  A    between atoms: _458  and  _459
REMARK  195  A    between atoms: _458  and  _461
REMARK  196  A    between atoms: _461  and  _462
REMARK  197  A    between atoms: _462  and  _463
REMARK  198  A    between atoms: _463  and  _464
REMARK  199  A    between atoms: _473  and  _475
REMARK  200  A    between atoms: _475  and  _476
REMARK  201  A    between atoms: _475  and  _478
REMARK  202  A    between atoms: _478  and  _479
REMARK  203  A    between atoms: _484  and  _486
REMARK  204  A    between atoms: _486  and  _487
REMARK  205  A    between atoms: _486  and  _489
REMARK  206  A    between atoms: _489  and  _490
REMARK  207  A    between atoms: _493  and  _495
REMARK  208  A    between atoms: _495  and  _496
REMARK  209  A    between atoms: _495  and  _498
REMARK  210  A    between atoms: _501  and  _503
REMARK  211  A    between atoms: _503  and  _504
REMARK  212  A    between atoms: _503  and  _506
REMARK  213  A    between atoms: _506  and  _507
REMARK  214  A    between atoms: _510  and  _512
REMARK  215  A    between atoms: _512  and  _513
REMARK  216  A    between atoms: _512  and  _515
REMARK  217  A    between atoms: _515  and  _516
REMARK  218  A    between atoms: _516  and  _517
REMARK  219  A    between atoms: _520  and  _522
REMARK  220  A    between atoms: _522  and  _523
REMARK  221  A    between atoms: _522  and  _525
REMARK  222  A    between atoms: _525  and  _526
REMARK  223  A    between atoms: _526  and  _527
REMARK  224  A    between atoms: _527  and  _528
REMARK  225  A    between atoms: _528  and  _529
REMARK  226  A    between atoms: _533  and  _535
REMARK  227  A    between atoms: _535  and  _536
REMARK  228  A    between atoms: _535  and  _538
REMARK  229  A    between atoms: _538  and  _539
REMARK  230  A    between atoms: _542  and  _544
REMARK  231  A    between atoms: _544  and  _545
REMARK  232  A    between atoms: _548  and  _550
REMARK  233  A    between atoms: _550  and  _551
REMARK  234  A    between atoms: _550  and  _553
REMARK  235  A    between atoms: _553  and  _554
REMARK  236  A    between atoms: _557  and  _559
REMARK  237  A    between atoms: _559  and  _560
REMARK  238  A    between atoms: _559  and  _562
REMARK  239  A    between atoms: _562  and  _563
REMARK  240  A    between atoms: _569  and  _571
REMARK  241  A    between atoms: _571  and  _572
REMARK  242  A    between atoms: _574  and  _576
REMARK  243  A    between atoms: _576  and  _577
REMARK  244  A    between atoms: _576  and  _579
REMARK  245  A    between atoms: _579  and  _580
REMARK                            x       y       z     vdW  Elec       q    Type
REMARK                         _______ _______ _______ _____ _____    ______ ____
ROOT
ATOM      1  O   HOH     1     -21.566  -3.198  22.718  0.00  0.00    +0.000 OA
ENDROOT
TORSDOF 0
REMARK  Name = ../refined-set-2016/4rwj/4rwj_pocket.pdb
REMARK  245 active torsions:
REMARK  status: ('A' for Active; 'I' for Inactive)
REMARK    1  A    between atoms: _1  and  _3
REMARK    2  A    between atoms: _3  and  _4
REMARK    3  A    between atoms: _3  and  _6
REMARK    4  A    between atoms: _6  and  _7
REMARK    5  A    between atoms: _7  and  _8
REMARK    6  A    between atoms: _8  and  _9
REMARK    7  A    between atoms: _9  and  _10
REMARK    8  A    between atoms: _15  and  _16
REMARK    9  A    between atoms: _21  and  _23
REMARK   10  A    between atoms: _23  and  _24
REMARK   11  A    between atoms: _23  and  _26
REMARK   12  A    between atoms: _26  and  _27
REMARK   13  A    between atoms: _30  and  _32
REMARK   14  A    between atoms: _32  and  _33
REMARK   15  A    between atoms: _35  and  _37
REMARK   16  A    between atoms: _37  and  _38
REMARK   17  A    between atoms: _37  and  _40
REMARK   18  A    between atoms: _40  and  _41
REMARK   19  A    between atoms: _41  and  _42
REMARK   20  A    between atoms: _45  and  _47
REMARK   21  A    between atoms: _47  and  _48
REMARK   22  A    between atoms: _50  and  _52
REMARK   23  A    between atoms: _52  and  _53
REMARK   24  A    between atoms: _56  and  _58
REMARK   25  A    between atoms: _58  and  _59
REMARK   26  A    between atoms: _58  and  _61
REMARK   27  A    between atoms: _61  and  _62
REMARK   28  A    between atoms: _68  and  _70
REMARK   29  A    between atoms: _70  and  _71
REMARK   30  A    between atoms: _73  and  _75
REMARK   31  A    between atoms: _75  and  _76
REMARK   32  A    between atoms: _75  and  _78
REMARK   33  A    between atoms: _78  and  _79
REMARK   34  A    between atoms: _79  and  _80
REMARK   35  A    between atoms: _85  and  _87
REMARK   36  A    between atoms: _87  and  _88
REMARK   37  A    between atoms: _87  and  _90
REMARK   38  A    between atoms: _93  and  _95
REMARK   39  A    between atoms: _95  and  _96
REMARK   40  A    between atoms: _95  and  _98
REMARK   41  A    between atoms: _101  and  _103
REMARK   42  A    between atoms: _103  and  _104
REMARK   43  A    between atoms: _103  and  _106
REMARK   44  A    between atoms: _106  and  _107
REMARK   45  A    between atoms: _110  and  _112
REMARK   46  A    between atoms: _112  and  _113
REMARK   47  A    between atoms: _112  and  _115
REMARK   48  A    between atoms: _118  and  _120
REMARK   49  A    between atoms: _120  and  _121
REMARK   50  A    between atoms: _124  and  _126
REMARK   51  A    between atoms: _126  and  _127
REMARK   52  A    between atoms: _126  and  _129
REMARK   53  A    between atoms: _132  and  _134
REMARK   54  A    between atoms: _134  and  _135
REMARK   55  A    between atoms: _134  and  _137
REMARK   56  A    between atoms: _137  and  _138
REMARK   57  A    between atoms: _138  and  _139
REMARK   58  A    between atoms: _139  and  _140
REMARK   59  A    between atoms: _140  and  _141
REMARK   60  A    between atoms: _145  and  _147
REMARK   61  A    between atoms: _147  and  _148
REMARK   62  A    between atoms: _147  and  _150
REMARK   63  A    between atoms: _150  and  _151
REMARK   64  A    between atoms: _151  and  _152
REMARK   65  A    between atoms: _154  and  _156
REMARK   66  A    between atoms: _156  and  _157
REMARK   67  A    between atoms: _156  and  _159
REMARK   68  A    between atoms: _159  and  _160
REMARK   69  A    between atoms: _163  and  _165
REMARK   70  A    between atoms: _165  and  _166
REMARK   71  A    between atoms: _165  and  _168
REMARK   72  A    between atoms: _168  and  _169
REMARK   73  A    between atoms: _172  and  _174
REMARK   74  A    between atoms: _174  and  _175
REMARK   75  A    between atoms: _174  and  _177
REMARK   76  A    between atoms: _177  and  _178
REMARK   77  A    between atoms: _178  and  _179
REMARK   78  A    between atoms: _182  and  _184
REMARK   79  A    between atoms: _184  and  _185
REMARK   80  A    between atoms: _184  and  _187
REMARK   81  A    between atoms: _187  and  _188
REMARK   82  A    between atoms: _188  and  _189
REMARK   83  A    between atoms: _191  and  _193
REMARK   84  A    between atoms: _193  and  _194
REMARK   85  A    between atoms: _193  and  _196
REMARK   86  A    between atoms: _196  and  _197
REMARK   87  A    between atoms: _197  and  _198
REMARK   88  A    between atoms: _200  and  _202
REMARK   89  A    between atoms: _202  and  _203
REMARK   90  A    between atoms: _202  and  _205
REMARK   91  A    between atoms: _205  and  _206
REMARK   92  A    between atoms: _209  and  _211
REMARK   93  A    between atoms: _211  and  _212
REMARK   94  A    between atoms: _211  and  _214
REMARK   95  A    between atoms: _214  and  _215
REMARK   96  A    between atoms: _218  and  _220
REMARK   97  A    between atoms: _220  and  _221
REMARK   98  A    between atoms: _220  and  _223
REMARK   99  A    between atoms: _223  and  _224
REMARK  100  A    between atoms: _229  and  _231
REMARK  101  A    between atoms: _231  and  _232
REMARK  102  A    between atoms: _231  and  _234
REMARK  103  A    between atoms: _234  and  _235
REMARK  104  A    between atoms: _238  and  _240
REMARK  105  A    between atoms: _240  and  _241
REMARK  106  A    between atoms: _240  and  _243
REMARK  107  A    between atoms: _243  and  _244
REMARK  108  A    between atoms: _247  and  _249
REMARK  109  A    between atoms: _249  and  _250
REMARK  110  A    between atoms: _252  and  _254
REMARK  111  A    between atoms: _254  and  _255
REMARK  112  A    between atoms: _254  and  _257
REMARK  113  A    between atoms: _257  and  _258
REMARK  114  A    between atoms: _263  and  _264
REMARK  115  A    between atoms: _266  and  _268
REMARK  116  A    between atoms: _268  and  _269
REMARK  117  A    between atoms: _268  and  _271
REMARK  118  A    between atoms: _274  and  _276
REMARK  119  A    between atoms: _276  and  _277
REMARK  120  A    between atoms: _276  and  _279
REMARK  121  A    between atoms: _279  and  _280
REMARK  122  A    between atoms: _283  and  _285
REMARK  123  A    between atoms: _285  and  _286
REMARK  124  A    between atoms: _285  and  _288
REMARK  125  A    between atoms: _291  and  _293
REMARK  126  A    between atoms: _293  and  _294
REMARK  127  A    between atoms: _293  and  _296
REMARK  128  A    between atoms: _296  and  _297
REMARK  129  A    between atoms: _297  and  _298
REMARK  130  A    between atoms: _301  and  _303
REMARK  131  A    between atoms: _303  and  _304
REMARK  132  A    between atoms: _303  and  _306
REMARK  133  A    between atoms: _306  and  _307
REMARK  134  A    between atoms: _312  and  _313
REMARK  135  A    between atoms: _315  and  _317
REMARK  136  A    between atoms: _317  and  _318
REMARK  137  A    between atoms: _321  and  _323
REMARK  138  A    between atoms: _323  and  _324
REMARK  139  A    between atoms: _323  and  _326
REMARK  140  A    between atoms: _326  and  _327
REMARK  141  A    between atoms: _329  and  _331
REMARK  142  A    between atoms: _331  and  _332
REMARK  143  A    between atoms: _331  and  _334
REMARK  144  A    between atoms: _334  and  _335
REMARK  145  A    between atoms: _335  and  _336
REMARK  146  A    between atoms: _336  and  _337
REMARK  147  A    between atoms: _337  and  _338
REMARK  148  A    between atoms: _342  and  _344
REMARK  149  A    between atoms: _344  and  _345
REMARK  150  A    between atoms: _347  and  _349
REMARK  151  A    between atoms: _349  and  _350
REMARK  152  A    between atoms: _349  and  _352
REMARK  153  A    between atoms: _352  and  _353
REMARK  154  A    between atoms: _358  and  _360
REMARK  155  A    between atoms: _360  and  _361
REMARK  156  A    between atoms: _360  and  _363
REMARK  157  A    between atoms: _363  and  _364
REMARK  158  A    between atoms: _364  and  _365
REMARK  159  A    between atoms: _368  and  _370
REMARK  160  A    between atoms: _370  and  _371
REMARK  161  A    between atoms: _370  and  _373
REMARK  162  A    between atoms: _373  and  _374
REMARK  163  A    between atoms: _379  and  _380
REMARK  164  A    between atoms: _382  and  _384
REMARK  165  A    between atoms: _384  and  _385
REMARK  166  A    between atoms: _388  and  _390
REMARK  167  A    between atoms: _390  and  _391
REMARK  168  A    between atoms: _390  and  _393
REMARK  169  A    between atoms: _393  and  _394
REMARK  170  A    between atoms: _394  and  _395
REMARK  171  A    between atoms: _395  and  _396
REMARK  172  A    between atoms: _405  and  _407
REMARK  173  A    between atoms: _407  and  _408
REMARK  174  A    between atoms: _407  and  _410
REMARK  175  A    between atoms: _410  and  _411
REMARK  176  A    between atoms: _413  and  _415
REMARK  177  A    between atoms: _415  and  _416
REMARK  178  A    between atoms: _415  and  _418
REMARK  179  A    between atoms: _418  and  _419
REMARK  180  A    between atoms: _424  and  _426
REMARK  181  A    between atoms: _426  and  _427
REMARK  182  A    between atoms: _426  and  _429
REMARK  183  A    between atoms: _429  and  _430
REMARK  184  A    between atoms: _435  and  _437
REMARK  185  A    between atoms: _437  and  _438
REMARK  186  A    between atoms: _437  and  _440
REMARK  187  A    between atoms: _440  and  _441
REMARK  188  A    between atoms: _441  and  _442
REMARK  189  A    between atoms: _445  and  _447
REMARK  190  A    between atoms: _447  and  _448
REMARK  191  A    between atoms: _447  and  _450
REMARK  192  A    between atoms: _450  and  _451
REMARK  193  A    between atoms: _456  and  _458
REMARK  194  A    between atoms: _458  and  _459
REMARK  195  A    between atoms: _458  and  _461
REMARK  196  A    between atoms: _461  and  _462
REMARK  197  A    between atoms: _462  and  _463
REMARK  198  A    between atoms: _463  and  _464
REMARK  199  A    between atoms: _473  and  _475
REMARK  200  A    between atoms: _475  and  _476
REMARK  201  A    between atoms: _475  and  _478
REMARK  202  A    between atoms: _478  and  _479
REMARK  203  A    between atoms: _484  and  _486
REMARK  204  A    between atoms: _486  and  _487
REMARK  205  A    between atoms: _486  and  _489
REMARK  206  A    between atoms: _489  and  _490
REMARK  207  A    between atoms: _493  and  _495
REMARK  208  A    between atoms: _495  and  _496
REMARK  209  A    between atoms: _495  and  _498
REMARK  210  A    between atoms: _501  and  _503
REMARK  211  A    between atoms: _503  and  _504
REMARK  212  A    between atoms: _503  and  _506
REMARK  213  A    between atoms: _506  and  _507
REMARK  214  A    between atoms: _510  and  _512
REMARK  215  A    between atoms: _512  and  _513
REMARK  216  A    between atoms: _512  and  _515
REMARK  217  A    between atoms: _515  and  _516
REMARK  218  A    between atoms: _516  and  _517
REMARK  219  A    between atoms: _520  and  _522
REMARK  220  A    between atoms: _522  and  _523
REMARK  221  A    between atoms: _522  and  _525
REMARK  222  A    between atoms: _525  and  _526
REMARK  223  A    between atoms: _526  and  _527
REMARK  224  A    between atoms: _527  and  _528
REMARK  225  A    between atoms: _528  and  _529
REMARK  226  A    between atoms: _533  and  _535
REMARK  227  A    between atoms: _535  and  _536
REMARK  228  A    between atoms: _535  and  _538
REMARK  229  A    between atoms: _538  and  _539
REMARK  230  A    between atoms: _542  and  _544
REMARK  231  A    between atoms: _544  and  _545
REMARK  232  A    between atoms: _548  and  _550
REMARK  233  A    between atoms: _550  and  _551
REMARK  234  A    between atoms: _550  and  _553
REMARK  235  A    between atoms: _553  and  _554
REMARK  236  A    between atoms: _557  and  _559
REMARK  237  A    between atoms: _559  and  _560
REMARK  238  A    between atoms: _559  and  _562
REMARK  239  A    between atoms: _562  and  _563
REMARK  240  A    between atoms: _569  and  _571
REMARK  241  A    between atoms: _571  and  _572
REMARK  242  A    between atoms: _574  and  _576
REMARK  243  A    between atoms: _576  and  _577
REMARK  244  A    between atoms: _576  and  _579
REMARK  245  A    between atoms: _579  and  _580
REMARK                            x       y       z     vdW  Elec       q    Type
REMARK                         _______ _______ _______ _____ _____    ______ ____
ROOT
ATOM      1  O   HOH     1     -21.730  -9.071   7.701  0.00  0.00    +0.000 OA
ENDROOT
TORSDOF 0
REMARK  Name = ../refined-set-2016/4rwj/4rwj_pocket.pdb
REMARK  245 active torsions:
REMARK  status: ('A' for Active; 'I' for Inactive)
REMARK    1  A    between atoms: _1  and  _3
REMARK    2  A    between atoms: _3  and  _4
REMARK    3  A    between atoms: _3  and  _6
REMARK    4  A    between atoms: _6  and  _7
REMARK    5  A    between atoms: _7  and  _8
REMARK    6  A    between atoms: _8  and  _9
REMARK    7  A    between atoms: _9  and  _10
REMARK    8  A    between atoms: _15  and  _16
REMARK    9  A    between atoms: _21  and  _23
REMARK   10  A    between atoms: _23  and  _24
REMARK   11  A    between atoms: _23  and  _26
REMARK   12  A    between atoms: _26  and  _27
REMARK   13  A    between atoms: _30  and  _32
REMARK   14  A    between atoms: _32  and  _33
REMARK   15  A    between atoms: _35  and  _37
REMARK   16  A    between atoms: _37  and  _38
REMARK   17  A    between atoms: _37  and  _40
REMARK   18  A    between atoms: _40  and  _41
REMARK   19  A    between atoms: _41  and  _42
REMARK   20  A    between atoms: _45  and  _47
REMARK   21  A    between atoms: _47  and  _48
REMARK   22  A    between atoms: _50  and  _52
REMARK   23  A    between atoms: _52  and  _53
REMARK   24  A    between atoms: _56  and  _58
REMARK   25  A    between atoms: _58  and  _59
REMARK   26  A    between atoms: _58  and  _61
REMARK   27  A    between atoms: _61  and  _62
REMARK   28  A    between atoms: _68  and  _70
REMARK   29  A    between atoms: _70  and  _71
REMARK   30  A    between atoms: _73  and  _75
REMARK   31  A    between atoms: _75  and  _76
REMARK   32  A    between atoms: _75  and  _78
REMARK   33  A    between atoms: _78  and  _79
REMARK   34  A    between atoms: _79  and  _80
REMARK   35  A    between atoms: _85  and  _87
REMARK   36  A    between atoms: _87  and  _88
REMARK   37  A    between atoms: _87  and  _90
REMARK   38  A    between atoms: _93  and  _95
REMARK   39  A    between atoms: _95  and  _96
REMARK   40  A    between atoms: _95  and  _98
REMARK   41  A    between atoms: _101  and  _103
REMARK   42  A    between atoms: _103  and  _104
REMARK   43  A    between atoms: _103  and  _106
REMARK   44  A    between atoms: _106  and  _107
REMARK   45  A    between atoms: _110  and  _112
REMARK   46  A    between atoms: _112  and  _113
REMARK   47  A    between atoms: _112  and  _115
REMARK   48  A    between atoms: _118  and  _120
REMARK   49  A    between atoms: _120  and  _121
REMARK   50  A    between atoms: _124  and  _126
REMARK   51  A    between atoms: _126  and  _127
REMARK   52  A    between atoms: _126  and  _129
REMARK   53  A    between atoms: _132  and  _134
REMARK   54  A    between atoms: _134  and  _135
REMARK   55  A    between atoms: _134  and  _137
REMARK   56  A    between atoms: _137  and  _138
REMARK   57  A    between atoms: _138  and  _139
REMARK   58  A    between atoms: _139  and  _140
REMARK   59  A    between atoms: _140  and  _141
REMARK   60  A    between atoms: _145  and  _147
REMARK   61  A    between atoms: _147  and  _148
REMARK   62  A    between atoms: _147  and  _150
REMARK   63  A    between atoms: _150  and  _151
REMARK   64  A    between atoms: _151  and  _152
REMARK   65  A    between atoms: _154  and  _156
REMARK   66  A    between atoms: _156  and  _157
REMARK   67  A    between atoms: _156  and  _159
REMARK   68  A    between atoms: _159  and  _160
REMARK   69  A    between atoms: _163  and  _165
REMARK   70  A    between atoms: _165  and  _166
REMARK   71  A    between atoms: _165  and  _168
REMARK   72  A    between atoms: _168  and  _169
REMARK   73  A    between atoms: _172  and  _174
REMARK   74  A    between atoms: _174  and  _175
REMARK   75  A    between atoms: _174  and  _177
REMARK   76  A    between atoms: _177  and  _178
REMARK   77  A    between atoms: _178  and  _179
REMARK   78  A    between atoms: _182  and  _184
REMARK   79  A    between atoms: _184  and  _185
REMARK   80  A    between atoms: _184  and  _187
REMARK   81  A    between atoms: _187  and  _188
REMARK   82  A    between atoms: _188  and  _189
REMARK   83  A    between atoms: _191  and  _193
REMARK   84  A    between atoms: _193  and  _194
REMARK   85  A    between atoms: _193  and  _196
REMARK   86  A    between atoms: _196  and  _197
REMARK   87  A    between atoms: _197  and  _198
REMARK   88  A    between atoms: _200  and  _202
REMARK   89  A    between atoms: _202  and  _203
REMARK   90  A    between atoms: _202  and  _205
REMARK   91  A    between atoms: _205  and  _206
REMARK   92  A    between atoms: _209  and  _211
REMARK   93  A    between atoms: _211  and  _212
REMARK   94  A    between atoms: _211  and  _214
REMARK   95  A    between atoms: _214  and  _215
REMARK   96  A    between atoms: _218  and  _220
REMARK   97  A    between atoms: _220  and  _221
REMARK   98  A    between atoms: _220  and  _223
REMARK   99  A    between atoms: _223  and  _224
REMARK  100  A    between atoms: _229  and  _231
REMARK  101  A    between atoms: _231  and  _232
REMARK  102  A    between atoms: _231  and  _234
REMARK  103  A    between atoms: _234  and  _235
REMARK  104  A    between atoms: _238  and  _240
REMARK  105  A    between atoms: _240  and  _241
REMARK  106  A    between atoms: _240  and  _243
REMARK  107  A    between atoms: _243  and  _244
REMARK  108  A    between atoms: _247  and  _249
REMARK  109  A    between atoms: _249  and  _250
REMARK  110  A    between atoms: _252  and  _254
REMARK  111  A    between atoms: _254  and  _255
REMARK  112  A    between atoms: _254  and  _257
REMARK  113  A    between atoms: _257  and  _258
REMARK  114  A    between atoms: _263  and  _264
REMARK  115  A    between atoms: _266  and  _268
REMARK  116  A    between atoms: _268  and  _269
REMARK  117  A    between atoms: _268  and  _271
REMARK  118  A    between atoms: _274  and  _276
REMARK  119  A    between atoms: _276  and  _277
REMARK  120  A    between atoms: _276  and  _279
REMARK  121  A    between atoms: _279  and  _280
REMARK  122  A    between atoms: _283  and  _285
REMARK  123  A    between atoms: _285  and  _286
REMARK  124  A    between atoms: _285  and  _288
REMARK  125  A    between atoms: _291  and  _293
REMARK  126  A    between atoms: _293  and  _294
REMARK  127  A    between atoms: _293  and  _296
REMARK  128  A    between atoms: _296  and  _297
REMARK  129  A    between atoms: _297  and  _298
REMARK  130  A    between atoms: _301  and  _303
REMARK  131  A    between atoms: _303  and  _304
REMARK  132  A    between atoms: _303  and  _306
REMARK  133  A    between atoms: _306  and  _307
REMARK  134  A    between atoms: _312  and  _313
REMARK  135  A    between atoms: _315  and  _317
REMARK  136  A    between atoms: _317  and  _318
REMARK  137  A    between atoms: _321  and  _323
REMARK  138  A    between atoms: _323  and  _324
REMARK  139  A    between atoms: _323  and  _326
REMARK  140  A    between atoms: _326  and  _327
REMARK  141  A    between atoms: _329  and  _331
REMARK  142  A    between atoms: _331  and  _332
REMARK  143  A    between atoms: _331  and  _334
REMARK  144  A    between atoms: _334  and  _335
REMARK  145  A    between atoms: _335  and  _336
REMARK  146  A    between atoms: _336  and  _337
REMARK  147  A    between atoms: _337  and  _338
REMARK  148  A    between atoms: _342  and  _344
REMARK  149  A    between atoms: _344  and  _345
REMARK  150  A    between atoms: _347  and  _349
REMARK  151  A    between atoms: _349  and  _350
REMARK  152  A    between atoms: _349  and  _352
REMARK  153  A    between atoms: _352  and  _353
REMARK  154  A    between atoms: _358  and  _360
REMARK  155  A    between atoms: _360  and  _361
REMARK  156  A    between atoms: _360  and  _363
REMARK  157  A    between atoms: _363  and  _364
REMARK  158  A    between atoms: _364  and  _365
REMARK  159  A    between atoms: _368  and  _370
REMARK  160  A    between atoms: _370  and  _371
REMARK  161  A    between atoms: _370  and  _373
REMARK  162  A    between atoms: _373  and  _374
REMARK  163  A    between atoms: _379  and  _380
REMARK  164  A    between atoms: _382  and  _384
REMARK  165  A    between atoms: _384  and  _385
REMARK  166  A    between atoms: _388  and  _390
REMARK  167  A    between atoms: _390  and  _391
REMARK  168  A    between atoms: _390  and  _393
REMARK  169  A    between atoms: _393  and  _394
REMARK  170  A    between atoms: _394  and  _395
REMARK  171  A    between atoms: _395  and  _396
REMARK  172  A    between atoms: _405  and  _407
REMARK  173  A    between atoms: _407  and  _408
REMARK  174  A    between atoms: _407  and  _410
REMARK  175  A    between atoms: _410  and  _411
REMARK  176  A    between atoms: _413  and  _415
REMARK  177  A    between atoms: _415  and  _416
REMARK  178  A    between atoms: _415  and  _418
REMARK  179  A    between atoms: _418  and  _419
REMARK  180  A    between atoms: _424  and  _426
REMARK  181  A    between atoms: _426  and  _427
REMARK  182  A    between atoms: _426  and  _429
REMARK  183  A    between atoms: _429  and  _430
REMARK  184  A    between atoms: _435  and  _437
REMARK  185  A    between atoms: _437  and  _438
REMARK  186  A    between atoms: _437  and  _440
REMARK  187  A    between atoms: _440  and  _441
REMARK  188  A    between atoms: _441  and  _442
REMARK  189  A    between atoms: _445  and  _447
REMARK  190  A    between atoms: _447  and  _448
REMARK  191  A    between atoms: _447  and  _450
REMARK  192  A    between atoms: _450  and  _451
REMARK  193  A    between atoms: _456  and  _458
REMARK  194  A    between atoms: _458  and  _459
REMARK  195  A    between atoms: _458  and  _461
REMARK  196  A    between atoms: _461  and  _462
REMARK  197  A    between atoms: _462  and  _463
REMARK  198  A    between atoms: _463  and  _464
REMARK  199  A    between atoms: _473  and  _475
REMARK  200  A    between atoms: _475  and  _476
REMARK  201  A    between atoms: _475  and  _478
REMARK  202  A    between atoms: _478  and  _479
REMARK  203  A    between atoms: _484  and  _486
REMARK  204  A    between atoms: _486  and  _487
REMARK  205  A    between atoms: _486  and  _489
REMARK  206  A    between atoms: _489  and  _490
REMARK  207  A    between atoms: _493  and  _495
REMARK  208  A    between atoms: _495  and  _496
REMARK  209  A    between atoms: _495  and  _498
REMARK  210  A    between atoms: _501  and  _503
REMARK  211  A    between atoms: _503  and  _504
REMARK  212  A    between atoms: _503  and  _506
REMARK  213  A    between atoms: _506  and  _507
REMARK  214  A    between atoms: _510  and  _512
REMARK  215  A    between atoms: _512  and  _513
REMARK  216  A    between atoms: _512  and  _515
REMARK  217  A    between atoms: _515  and  _516
REMARK  218  A    between atoms: _516  and  _517
REMARK  219  A    between atoms: _520  and  _522
REMARK  220  A    between atoms: _522  and  _523
REMARK  221  A    between atoms: _522  and  _525
REMARK  222  A    between atoms: _525  and  _526
REMARK  223  A    between atoms: _526  and  _527
REMARK  224  A    between atoms: _527  and  _528
REMARK  225  A    between atoms: _528  and  _529
REMARK  226  A    between atoms: _533  and  _535
REMARK  227  A    between atoms: _535  and  _536
REMARK  228  A    between atoms: _535  and  _538
REMARK  229  A    between atoms: _538  and  _539
REMARK  230  A    between atoms: _542  and  _544
REMARK  231  A    between atoms: _544  and  _545
REMARK  232  A    between atoms: _548  and  _550
REMARK  233  A    between atoms: _550  and  _551
REMARK  234  A    between atoms: _550  and  _553
REMARK  235  A    between atoms: _553  and  _554
REMARK  236  A    between atoms: _557  and  _559
REMARK  237  A    between atoms: _559  and  _560
REMARK  238  A    between atoms: _559  and  _562
REMARK  239  A    between atoms: _562  and  _563
REMARK  240  A    between atoms: _569  and  _571
REMARK  241  A    between atoms: _571  and  _572
REMARK  242  A    between atoms: _574  and  _576
REMARK  243  A    between atoms: _576  and  _577
REMARK  244  A    between atoms: _576  and  _579
REMARK  245  A    between atoms: _579  and  _580
REMARK                            x       y       z     vdW  Elec       q    Type
REMARK                         _______ _______ _______ _____ _____    ______ ____
ROOT
ATOM      1  O   HOH     1      -6.533   0.591   9.227  0.00  0.00    +0.000 OA
ENDROOT
TORSDOF 0
