REMARK  Name = ../refined-set-2016/1np0/1np0_pocket.pdb
REMARK  156 active torsions:
REMARK  status: ('A' for Active; 'I' for Inactive)
REMARK    1  A    between atoms: _1  and  _3
REMARK    2  A    between atoms: _3  and  _4
REMARK    3  A    between atoms: _3  and  _6
REMARK    4  A    between atoms: _6  and  _7
REMARK    5  A    between atoms: _10  and  _12
REMARK    6  A    between atoms: _12  and  _13
REMARK    7  A    between atoms: _12  and  _15
REMARK    8  A    between atoms: _15  and  _16
REMARK    9  A    between atoms: _19  and  _21
REMARK   10  A    between atoms: _21  and  _22
REMARK   11  A    between atoms: _21  and  _24
REMARK   12  A    between atoms: _24  and  _25
REMARK   13  A    between atoms: _25  and  _26
REMARK   14  A    between atoms: _26  and  _27
REMARK   15  A    between atoms: _36  and  _38
REMARK   16  A    between atoms: _38  and  _39
REMARK   17  A    between atoms: _38  and  _41
REMARK   18  A    between atoms: _41  and  _42
REMARK   19  A    between atoms: _47  and  _49
REMARK   20  A    between atoms: _49  and  _50
REMARK   21  A    between atoms: _49  and  _52
REMARK   22  A    between atoms: _52  and  _53
REMARK   23  A    between atoms: _58  and  _60
REMARK   24  A    between atoms: _60  and  _61
REMARK   25  A    between atoms: _60  and  _63
REMARK   26  A    between atoms: _63  and  _64
REMARK   27  A    between atoms: _67  and  _69
REMARK   28  A    between atoms: _69  and  _70
REMARK   29  A    between atoms: _69  and  _72
REMARK   30  A    between atoms: _72  and  _73
REMARK   31  A    between atoms: _76  and  _78
REMARK   32  A    between atoms: _78  and  _79
REMARK   33  A    between atoms: _78  and  _81
REMARK   34  A    between atoms: _81  and  _82
REMARK   35  A    between atoms: _82  and  _83
REMARK   36  A    between atoms: _88  and  _90
REMARK   37  A    between atoms: _90  and  _91
REMARK   38  A    between atoms: _90  and  _93
REMARK   39  A    between atoms: _93  and  _94
REMARK   40  A    between atoms: _94  and  _95
REMARK   41  A    between atoms: _98  and  _100
REMARK   42  A    between atoms: _100  and  _101
REMARK   43  A    between atoms: _100  and  _103
REMARK   44  A    between atoms: _103  and  _104
REMARK   45  A    between atoms: _107  and  _109
REMARK   46  A    between atoms: _109  and  _110
REMARK   47  A    between atoms: _109  and  _112
REMARK   48  A    between atoms: _112  and  _113
REMARK   49  A    between atoms: _118  and  _120
REMARK   50  A    between atoms: _120  and  _121
REMARK   51  A    between atoms: _120  and  _123
REMARK   52  A    between atoms: _123  and  _124
REMARK   53  A    between atoms: _129  and  _131
REMARK   54  A    between atoms: _131  and  _132
REMARK   55  A    between atoms: _134  and  _136
REMARK   56  A    between atoms: _136  and  _137
REMARK   57  A    between atoms: _139  and  _141
REMARK   58  A    between atoms: _141  and  _142
REMARK   59  A    between atoms: _141  and  _144
REMARK   60  A    between atoms: _144  and  _145
REMARK   61  A    between atoms: _148  and  _150
REMARK   62  A    between atoms: _150  and  _151
REMARK   63  A    between atoms: _150  and  _153
REMARK   64  A    between atoms: _153  and  _154
REMARK   65  A    between atoms: _154  and  _155
REMARK   66  A    between atoms: _158  and  _160
REMARK   67  A    between atoms: _160  and  _161
REMARK   68  A    between atoms: _160  and  _163
REMARK   69  A    between atoms: _163  and  _164
REMARK   70  A    between atoms: _174  and  _176
REMARK   71  A    between atoms: _176  and  _177
REMARK   72  A    between atoms: _176  and  _179
REMARK   73  A    between atoms: _179  and  _180
REMARK   74  A    between atoms: _180  and  _181
REMARK   75  A    between atoms: _186  and  _188
REMARK   76  A    between atoms: _188  and  _189
REMARK   77  A    between atoms: _188  and  _191
REMARK   78  A    between atoms: _191  and  _192
REMARK   79  A    between atoms: _192  and  _193
REMARK   80  A    between atoms: _196  and  _198
REMARK   81  A    between atoms: _198  and  _199
REMARK   82  A    between atoms: _198  and  _201
REMARK   83  A    between atoms: _201  and  _202
REMARK   84  A    between atoms: _202  and  _203
REMARK   85  A    between atoms: _206  and  _208
REMARK   86  A    between atoms: _208  and  _209
REMARK   87  A    between atoms: _208  and  _211
REMARK   88  A    between atoms: _214  and  _216
REMARK   89  A    between atoms: _216  and  _217
REMARK   90  A    between atoms: _216  and  _219
REMARK   91  A    between atoms: _219  and  _220
REMARK   92  A    between atoms: _230  and  _232
REMARK   93  A    between atoms: _232  and  _233
REMARK   94  A    between atoms: _232  and  _235
REMARK   95  A    between atoms: _235  and  _236
REMARK   96  A    between atoms: _236  and  _237
REMARK   97  A    between atoms: _237  and  _238
REMARK   98  A    between atoms: _238  and  _239
REMARK   99  A    between atoms: _243  and  _245
REMARK  100  A    between atoms: _245  and  _246
REMARK  101  A    between atoms: _245  and  _248
REMARK  102  A    between atoms: _248  and  _249
REMARK  103  A    between atoms: _252  and  _254
REMARK  104  A    between atoms: _254  and  _255
REMARK  105  A    between atoms: _254  and  _257
REMARK  106  A    between atoms: _257  and  _258
REMARK  107  A    between atoms: _260  and  _262
REMARK  108  A    between atoms: _262  and  _263
REMARK  109  A    between atoms: _262  and  _265
REMARK  110  A    between atoms: _265  and  _266
REMARK  111  A    between atoms: _271  and  _272
REMARK  112  A    between atoms: _274  and  _276
REMARK  113  A    between atoms: _276  and  _277
REMARK  114  A    between atoms: _276  and  _279
REMARK  115  A    between atoms: _279  and  _280
REMARK  116  A    between atoms: _283  and  _285
REMARK  117  A    between atoms: _285  and  _286
REMARK  118  A    between atoms: _285  and  _288
REMARK  119  A    between atoms: _288  and  _289
REMARK  120  A    between atoms: _292  and  _294
REMARK  121  A    between atoms: _294  and  _295
REMARK  122  A    between atoms: _294  and  _297
REMARK  123  A    between atoms: _297  and  _298
REMARK  124  A    between atoms: _301  and  _303
REMARK  125  A    between atoms: _303  and  _304
REMARK  126  A    between atoms: _303  and  _306
REMARK  127  A    between atoms: _308  and  _310
REMARK  128  A    between atoms: _310  and  _311
REMARK  129  A    between atoms: _310  and  _313
REMARK  130  A    between atoms: _313  and  _314
REMARK  131  A    between atoms: _317  and  _319
REMARK  132  A    between atoms: _319  and  _320
REMARK  133  A    between atoms: _319  and  _322
REMARK  134  A    between atoms: _322  and  _323
REMARK  135  A    between atoms: _333  and  _335
REMARK  136  A    between atoms: _335  and  _336
REMARK  137  A    between atoms: _338  and  _340
REMARK  138  A    between atoms: _340  and  _341
REMARK  139  A    between atoms: _340  and  _343
REMARK  140  A    between atoms: _343  and  _344
REMARK  141  A    between atoms: _344  and  _345
REMARK  142  A    between atoms: _348  and  _350
REMARK  143  A    between atoms: _350  and  _351
REMARK  144  A    between atoms: _350  and  _353
REMARK  145  A    between atoms: _353  and  _354
REMARK  146  A    between atoms: _359  and  _360
REMARK  147  A    between atoms: _362  and  _364
REMARK  148  A    between atoms: _364  and  _365
REMARK  149  A    between atoms: _364  and  _367
REMARK  150  A    between atoms: _367  and  _368
REMARK  151  A    between atoms: _373  and  _374
REMARK  152  A    between atoms: _376  and  _378
REMARK  153  A    between atoms: _378  and  _379
REMARK  154  A    between atoms: _378  and  _381
REMARK  155  A    between atoms: _381  and  _382
REMARK  156  A    between atoms: _387  and  _388
REMARK                            x       y       z     vdW  Elec       q    Type
REMARK                         _______ _______ _______ _____ _____    ______ ____
ROOT
ATOM      1  CA  LEU A   1      13.360  26.681  28.249  0.00  0.00    +0.133 C 
ENDROOT
BRANCH   1   2
ATOM      2  N   LEU A   1      13.661  26.109  26.942  0.00  0.00    -0.239 NA
ATOM      3  H   LEU A   1      13.356  25.139  26.724  0.00  0.00    +0.142 HD
ENDBRANCH   1   2
BRANCH   1   4
ATOM      4  C   LEU A   1      14.394  26.225  29.233  0.00  0.00    +0.224 C 
ATOM      5  O   LEU A   1      14.649  25.034  29.362  0.00  0.00    -0.287 OA
ENDBRANCH   1   4
BRANCH   1   6
ATOM      6  CB  LEU A   1      11.982  26.289  28.787  0.00  0.00    +0.025 C 
BRANCH   6   7
ATOM      7  CG  LEU A   1      11.622  26.855  30.179  0.00  0.00    +0.002 C 
ATOM      8  CD2 LEU A   1      11.983  25.928  31.344  0.00  0.00    +0.000 C 
ATOM      9  CD1 LEU A   1      10.145  27.133  30.242  0.00  0.00    +0.000 C 
ENDBRANCH   6   7
ENDBRANCH   1   6
TORSDOF 4
REMARK  Name = ../refined-set-2016/1np0/1np0_pocket.pdb
REMARK  156 active torsions:
REMARK  status: ('A' for Active; 'I' for Inactive)
REMARK    1  A    between atoms: _1  and  _3
REMARK    2  A    between atoms: _3  and  _4
REMARK    3  A    between atoms: _3  and  _6
REMARK    4  A    between atoms: _6  and  _7
REMARK    5  A    between atoms: _10  and  _12
REMARK    6  A    between atoms: _12  and  _13
REMARK    7  A    between atoms: _12  and  _15
REMARK    8  A    between atoms: _15  and  _16
REMARK    9  A    between atoms: _19  and  _21
REMARK   10  A    between atoms: _21  and  _22
REMARK   11  A    between atoms: _21  and  _24
REMARK   12  A    between atoms: _24  and  _25
REMARK   13  A    between atoms: _25  and  _26
REMARK   14  A    between atoms: _26  and  _27
REMARK   15  A    between atoms: _36  and  _38
REMARK   16  A    between atoms: _38  and  _39
REMARK   17  A    between atoms: _38  and  _41
REMARK   18  A    between atoms: _41  and  _42
REMARK   19  A    between atoms: _47  and  _49
REMARK   20  A    between atoms: _49  and  _50
REMARK   21  A    between atoms: _49  and  _52
REMARK   22  A    between atoms: _52  and  _53
REMARK   23  A    between atoms: _58  and  _60
REMARK   24  A    between atoms: _60  and  _61
REMARK   25  A    between atoms: _60  and  _63
REMARK   26  A    between atoms: _63  and  _64
REMARK   27  A    between atoms: _67  and  _69
REMARK   28  A    between atoms: _69  and  _70
REMARK   29  A    between atoms: _69  and  _72
REMARK   30  A    between atoms: _72  and  _73
REMARK   31  A    between atoms: _76  and  _78
REMARK   32  A    between atoms: _78  and  _79
REMARK   33  A    between atoms: _78  and  _81
REMARK   34  A    between atoms: _81  and  _82
REMARK   35  A    between atoms: _82  and  _83
REMARK   36  A    between atoms: _88  and  _90
REMARK   37  A    between atoms: _90  and  _91
REMARK   38  A    between atoms: _90  and  _93
REMARK   39  A    between atoms: _93  and  _94
REMARK   40  A    between atoms: _94  and  _95
REMARK   41  A    between atoms: _98  and  _100
REMARK   42  A    between atoms: _100  and  _101
REMARK   43  A    between atoms: _100  and  _103
REMARK   44  A    between atoms: _103  and  _104
REMARK   45  A    between atoms: _107  and  _109
REMARK   46  A    between atoms: _109  and  _110
REMARK   47  A    between atoms: _109  and  _112
REMARK   48  A    between atoms: _112  and  _113
REMARK   49  A    between atoms: _118  and  _120
REMARK   50  A    between atoms: _120  and  _121
REMARK   51  A    between atoms: _120  and  _123
REMARK   52  A    between atoms: _123  and  _124
REMARK   53  A    between atoms: _129  and  _131
REMARK   54  A    between atoms: _131  and  _132
REMARK   55  A    between atoms: _134  and  _136
REMARK   56  A    between atoms: _136  and  _137
REMARK   57  A    between atoms: _139  and  _141
REMARK   58  A    between atoms: _141  and  _142
REMARK   59  A    between atoms: _141  and  _144
REMARK   60  A    between atoms: _144  and  _145
REMARK   61  A    between atoms: _148  and  _150
REMARK   62  A    between atoms: _150  and  _151
REMARK   63  A    between atoms: _150  and  _153
REMARK   64  A    between atoms: _153  and  _154
REMARK   65  A    between atoms: _154  and  _155
REMARK   66  A    between atoms: _158  and  _160
REMARK   67  A    between atoms: _160  and  _161
REMARK   68  A    between atoms: _160  and  _163
REMARK   69  A    between atoms: _163  and  _164
REMARK   70  A    between atoms: _174  and  _176
REMARK   71  A    between atoms: _176  and  _177
REMARK   72  A    between atoms: _176  and  _179
REMARK   73  A    between atoms: _179  and  _180
REMARK   74  A    between atoms: _180  and  _181
REMARK   75  A    between atoms: _186  and  _188
REMARK   76  A    between atoms: _188  and  _189
REMARK   77  A    between atoms: _188  and  _191
REMARK   78  A    between atoms: _191  and  _192
REMARK   79  A    between atoms: _192  and  _193
REMARK   80  A    between atoms: _196  and  _198
REMARK   81  A    between atoms: _198  and  _199
REMARK   82  A    between atoms: _198  and  _201
REMARK   83  A    between atoms: _201  and  _202
REMARK   84  A    between atoms: _202  and  _203
REMARK   85  A    between atoms: _206  and  _208
REMARK   86  A    between atoms: _208  and  _209
REMARK   87  A    between atoms: _208  and  _211
REMARK   88  A    between atoms: _214  and  _216
REMARK   89  A    between atoms: _216  and  _217
REMARK   90  A    between atoms: _216  and  _219
REMARK   91  A    between atoms: _219  and  _220
REMARK   92  A    between atoms: _230  and  _232
REMARK   93  A    between atoms: _232  and  _233
REMARK   94  A    between atoms: _232  and  _235
REMARK   95  A    between atoms: _235  and  _236
REMARK   96  A    between atoms: _236  and  _237
REMARK   97  A    between atoms: _237  and  _238
REMARK   98  A    between atoms: _238  and  _239
REMARK   99  A    between atoms: _243  and  _245
REMARK  100  A    between atoms: _245  and  _246
REMARK  101  A    between atoms: _245  and  _248
REMARK  102  A    between atoms: _248  and  _249
REMARK  103  A    between atoms: _252  and  _254
REMARK  104  A    between atoms: _254  and  _255
REMARK  105  A    between atoms: _254  and  _257
REMARK  106  A    between atoms: _257  and  _258
REMARK  107  A    between atoms: _260  and  _262
REMARK  108  A    between atoms: _262  and  _263
REMARK  109  A    between atoms: _262  and  _265
REMARK  110  A    between atoms: _265  and  _266
REMARK  111  A    between atoms: _271  and  _272
REMARK  112  A    between atoms: _274  and  _276
REMARK  113  A    between atoms: _276  and  _277
REMARK  114  A    between atoms: _276  and  _279
REMARK  115  A    between atoms: _279  and  _280
REMARK  116  A    between atoms: _283  and  _285
REMARK  117  A    between atoms: _285  and  _286
REMARK  118  A    between atoms: _285  and  _288
REMARK  119  A    between atoms: _288  and  _289
REMARK  120  A    between atoms: _292  and  _294
REMARK  121  A    between atoms: _294  and  _295
REMARK  122  A    between atoms: _294  and  _297
REMARK  123  A    between atoms: _297  and  _298
REMARK  124  A    between atoms: _301  and  _303
REMARK  125  A    between atoms: _303  and  _304
REMARK  126  A    between atoms: _303  and  _306
REMARK  127  A    between atoms: _308  and  _310
REMARK  128  A    between atoms: _310  and  _311
REMARK  129  A    between atoms: _310  and  _313
REMARK  130  A    between atoms: _313  and  _314
REMARK  131  A    between atoms: _317  and  _319
REMARK  132  A    between atoms: _319  and  _320
REMARK  133  A    between atoms: _319  and  _322
REMARK  134  A    between atoms: _322  and  _323
REMARK  135  A    between atoms: _333  and  _335
REMARK  136  A    between atoms: _335  and  _336
REMARK  137  A    between atoms: _338  and  _340
REMARK  138  A    between atoms: _340  and  _341
REMARK  139  A    between atoms: _340  and  _343
REMARK  140  A    between atoms: _343  and  _344
REMARK  141  A    between atoms: _344  and  _345
REMARK  142  A    between atoms: _348  and  _350
REMARK  143  A    between atoms: _350  and  _351
REMARK  144  A    between atoms: _350  and  _353
REMARK  145  A    between atoms: _353  and  _354
REMARK  146  A    between atoms: _359  and  _360
REMARK  147  A    between atoms: _362  and  _364
REMARK  148  A    between atoms: _364  and  _365
REMARK  149  A    between atoms: _364  and  _367
REMARK  150  A    between atoms: _367  and  _368
REMARK  151  A    between atoms: _373  and  _374
REMARK  152  A    between atoms: _376  and  _378
REMARK  153  A    between atoms: _378  and  _379
REMARK  154  A    between atoms: _378  and  _381
REMARK  155  A    between atoms: _381  and  _382
REMARK  156  A    between atoms: _387  and  _388
REMARK                            x       y       z     vdW  Elec       q    Type
REMARK                         _______ _______ _______ _____ _____    ______ ____
ROOT
ATOM      1  CA  ASP A   1      14.944  27.302  34.737  0.00  0.00    +0.144 C 
ENDROOT
BRANCH   1   2
ATOM      2  N   ASP A   1      15.528  26.959  33.458  0.00  0.00    -0.239 NA
ATOM      3  H   ASP A   1      16.253  26.214  33.443  0.00  0.00    +0.142 HD
ENDBRANCH   1   2
BRANCH   1   4
ATOM      4  C   ASP A   1      16.097  27.595  35.696  0.00  0.00    +0.225 C 
ATOM      5  O   ASP A   1      16.817  26.674  36.083  0.00  0.00    -0.287 OA
ENDBRANCH   1   4
BRANCH   1   6
ATOM      6  CB  ASP A   1      14.094  26.096  35.182  0.00  0.00    +0.139 C 
BRANCH   6   7
ATOM      7  CG  ASP A   1      13.602  26.167  36.633  0.00  0.00    +0.367 C 
ATOM      8  OD2 ASP A   1      13.826  27.158  37.366  0.00  0.00    -0.246 OA
ATOM      9  OD1 ASP A   1      12.953  25.207  37.118  0.00  0.00    -0.246 OA
ENDBRANCH   6   7
ENDBRANCH   1   6
TORSDOF 4
REMARK  Name = ../refined-set-2016/1np0/1np0_pocket.pdb
REMARK  156 active torsions:
REMARK  status: ('A' for Active; 'I' for Inactive)
REMARK    1  A    between atoms: _1  and  _3
REMARK    2  A    between atoms: _3  and  _4
REMARK    3  A    between atoms: _3  and  _6
REMARK    4  A    between atoms: _6  and  _7
REMARK    5  A    between atoms: _10  and  _12
REMARK    6  A    between atoms: _12  and  _13
REMARK    7  A    between atoms: _12  and  _15
REMARK    8  A    between atoms: _15  and  _16
REMARK    9  A    between atoms: _19  and  _21
REMARK   10  A    between atoms: _21  and  _22
REMARK   11  A    between atoms: _21  and  _24
REMARK   12  A    between atoms: _24  and  _25
REMARK   13  A    between atoms: _25  and  _26
REMARK   14  A    between atoms: _26  and  _27
REMARK   15  A    between atoms: _36  and  _38
REMARK   16  A    between atoms: _38  and  _39
REMARK   17  A    between atoms: _38  and  _41
REMARK   18  A    between atoms: _41  and  _42
REMARK   19  A    between atoms: _47  and  _49
REMARK   20  A    between atoms: _49  and  _50
REMARK   21  A    between atoms: _49  and  _52
REMARK   22  A    between atoms: _52  and  _53
REMARK   23  A    between atoms: _58  and  _60
REMARK   24  A    between atoms: _60  and  _61
REMARK   25  A    between atoms: _60  and  _63
REMARK   26  A    between atoms: _63  and  _64
REMARK   27  A    between atoms: _67  and  _69
REMARK   28  A    between atoms: _69  and  _70
REMARK   29  A    between atoms: _69  and  _72
REMARK   30  A    between atoms: _72  and  _73
REMARK   31  A    between atoms: _76  and  _78
REMARK   32  A    between atoms: _78  and  _79
REMARK   33  A    between atoms: _78  and  _81
REMARK   34  A    between atoms: _81  and  _82
REMARK   35  A    between atoms: _82  and  _83
REMARK   36  A    between atoms: _88  and  _90
REMARK   37  A    between atoms: _90  and  _91
REMARK   38  A    between atoms: _90  and  _93
REMARK   39  A    between atoms: _93  and  _94
REMARK   40  A    between atoms: _94  and  _95
REMARK   41  A    between atoms: _98  and  _100
REMARK   42  A    between atoms: _100  and  _101
REMARK   43  A    between atoms: _100  and  _103
REMARK   44  A    between atoms: _103  and  _104
REMARK   45  A    between atoms: _107  and  _109
REMARK   46  A    between atoms: _109  and  _110
REMARK   47  A    between atoms: _109  and  _112
REMARK   48  A    between atoms: _112  and  _113
REMARK   49  A    between atoms: _118  and  _120
REMARK   50  A    between atoms: _120  and  _121
REMARK   51  A    between atoms: _120  and  _123
REMARK   52  A    between atoms: _123  and  _124
REMARK   53  A    between atoms: _129  and  _131
REMARK   54  A    between atoms: _131  and  _132
REMARK   55  A    between atoms: _134  and  _136
REMARK   56  A    between atoms: _136  and  _137
REMARK   57  A    between atoms: _139  and  _141
REMARK   58  A    between atoms: _141  and  _142
REMARK   59  A    between atoms: _141  and  _144
REMARK   60  A    between atoms: _144  and  _145
REMARK   61  A    between atoms: _148  and  _150
REMARK   62  A    between atoms: _150  and  _151
REMARK   63  A    between atoms: _150  and  _153
REMARK   64  A    between atoms: _153  and  _154
REMARK   65  A    between atoms: _154  and  _155
REMARK   66  A    between atoms: _158  and  _160
REMARK   67  A    between atoms: _160  and  _161
REMARK   68  A    between atoms: _160  and  _163
REMARK   69  A    between atoms: _163  and  _164
REMARK   70  A    between atoms: _174  and  _176
REMARK   71  A    between atoms: _176  and  _177
REMARK   72  A    between atoms: _176  and  _179
REMARK   73  A    between atoms: _179  and  _180
REMARK   74  A    between atoms: _180  and  _181
REMARK   75  A    between atoms: _186  and  _188
REMARK   76  A    between atoms: _188  and  _189
REMARK   77  A    between atoms: _188  and  _191
REMARK   78  A    between atoms: _191  and  _192
REMARK   79  A    between atoms: _192  and  _193
REMARK   80  A    between atoms: _196  and  _198
REMARK   81  A    between atoms: _198  and  _199
REMARK   82  A    between atoms: _198  and  _201
REMARK   83  A    between atoms: _201  and  _202
REMARK   84  A    between atoms: _202  and  _203
REMARK   85  A    between atoms: _206  and  _208
REMARK   86  A    between atoms: _208  and  _209
REMARK   87  A    between atoms: _208  and  _211
REMARK   88  A    between atoms: _214  and  _216
REMARK   89  A    between atoms: _216  and  _217
REMARK   90  A    between atoms: _216  and  _219
REMARK   91  A    between atoms: _219  and  _220
REMARK   92  A    between atoms: _230  and  _232
REMARK   93  A    between atoms: _232  and  _233
REMARK   94  A    between atoms: _232  and  _235
REMARK   95  A    between atoms: _235  and  _236
REMARK   96  A    between atoms: _236  and  _237
REMARK   97  A    between atoms: _237  and  _238
REMARK   98  A    between atoms: _238  and  _239
REMARK   99  A    between atoms: _243  and  _245
REMARK  100  A    between atoms: _245  and  _246
REMARK  101  A    between atoms: _245  and  _248
REMARK  102  A    between atoms: _248  and  _249
REMARK  103  A    between atoms: _252  and  _254
REMARK  104  A    between atoms: _254  and  _255
REMARK  105  A    between atoms: _254  and  _257
REMARK  106  A    between atoms: _257  and  _258
REMARK  107  A    between atoms: _260  and  _262
REMARK  108  A    between atoms: _262  and  _263
REMARK  109  A    between atoms: _262  and  _265
REMARK  110  A    between atoms: _265  and  _266
REMARK  111  A    between atoms: _271  and  _272
REMARK  112  A    between atoms: _274  and  _276
REMARK  113  A    between atoms: _276  and  _277
REMARK  114  A    between atoms: _276  and  _279
REMARK  115  A    between atoms: _279  and  _280
REMARK  116  A    between atoms: _283  and  _285
REMARK  117  A    between atoms: _285  and  _286
REMARK  118  A    between atoms: _285  and  _288
REMARK  119  A    between atoms: _288  and  _289
REMARK  120  A    between atoms: _292  and  _294
REMARK  121  A    between atoms: _294  and  _295
REMARK  122  A    between atoms: _294  and  _297
REMARK  123  A    between atoms: _297  and  _298
REMARK  124  A    between atoms: _301  and  _303
REMARK  125  A    between atoms: _303  and  _304
REMARK  126  A    between atoms: _303  and  _306
REMARK  127  A    between atoms: _308  and  _310
REMARK  128  A    between atoms: _310  and  _311
REMARK  129  A    between atoms: _310  and  _313
REMARK  130  A    between atoms: _313  and  _314
REMARK  131  A    between atoms: _317  and  _319
REMARK  132  A    between atoms: _319  and  _320
REMARK  133  A    between atoms: _319  and  _322
REMARK  134  A    between atoms: _322  and  _323
REMARK  135  A    between atoms: _333  and  _335
REMARK  136  A    between atoms: _335  and  _336
REMARK  137  A    between atoms: _338  and  _340
REMARK  138  A    between atoms: _340  and  _341
REMARK  139  A    between atoms: _340  and  _343
REMARK  140  A    between atoms: _343  and  _344
REMARK  141  A    between atoms: _344  and  _345
REMARK  142  A    between atoms: _348  and  _350
REMARK  143  A    between atoms: _350  and  _351
REMARK  144  A    between atoms: _350  and  _353
REMARK  145  A    between atoms: _353  and  _354
REMARK  146  A    between atoms: _359  and  _360
REMARK  147  A    between atoms: _362  and  _364
REMARK  148  A    between atoms: _364  and  _365
REMARK  149  A    between atoms: _364  and  _367
REMARK  150  A    between atoms: _367  and  _368
REMARK  151  A    between atoms: _373  and  _374
REMARK  152  A    between atoms: _376  and  _378
REMARK  153  A    between atoms: _378  and  _379
REMARK  154  A    between atoms: _378  and  _381
REMARK  155  A    between atoms: _381  and  _382
REMARK  156  A    between atoms: _387  and  _388
REMARK                            x       y       z     vdW  Elec       q    Type
REMARK                         _______ _______ _______ _____ _____    ______ ____
ROOT
ATOM      1  NE  ARG A   1      10.635  25.573  40.346  0.00  0.00    -0.265 N 
ATOM      2  HE  ARG A   1      10.204  25.764  41.273  0.00  0.00    +0.259 HD
ATOM      3  CZ  ARG A   1       9.815  25.178  39.367  0.00  0.00    +0.342 C 
ATOM      4  NH2 ARG A   1       8.514  25.056  39.631  0.00  0.00    -0.292 N 
ATOM      5 HH21 ARG A   1       8.155  25.267  40.584  0.00  0.00    +0.255 HD
ATOM      6 HH22 ARG A   1       7.858  24.750  38.884  0.00  0.00    +0.255 HD
ATOM      7  NH1 ARG A   1      10.264  24.916  38.126  0.00  0.00    -0.292 N 
ATOM      8 HH11 ARG A   1      11.275  25.019  37.906  0.00  0.00    +0.255 HD
ATOM      9 HH12 ARG A   1       9.600  24.610  37.386  0.00  0.00    +0.255 HD
ENDROOT
BRANCH   1  10
ATOM     10  CD  ARG A   1      12.080  25.761  40.236  0.00  0.00    +0.174 C 
BRANCH  10  11
ATOM     11  CG  ARG A   1      12.858  24.435  40.360  0.00  0.00    +0.045 C 
BRANCH  11  12
ATOM     12  CB  ARG A   1      14.394  24.545  40.200  0.00  0.00    +0.029 C 
BRANCH  12  13
ATOM     13  CA  ARG A   1      15.019  25.651  41.032  0.00  0.00    +0.133 C 
BRANCH  13  14
ATOM     14  N   ARG A   1      14.911  26.933  40.352  0.00  0.00    -0.239 NA
ATOM     15  H   ARG A   1      14.556  26.959  39.375  0.00  0.00    +0.142 HD
ENDBRANCH  13  14
BRANCH  13  16
ATOM     16  C   ARG A   1      16.474  25.374  41.381  0.00  0.00    +0.224 C 
ATOM     17  O   ARG A   1      16.763  24.798  42.426  0.00  0.00    -0.287 OA
ENDBRANCH  13  16
ENDBRANCH  12  13
ENDBRANCH  11  12
ENDBRANCH  10  11
ENDBRANCH   1  10
TORSDOF 6
REMARK  Name = ../refined-set-2016/1np0/1np0_pocket.pdb
REMARK  156 active torsions:
REMARK  status: ('A' for Active; 'I' for Inactive)
REMARK    1  A    between atoms: _1  and  _3
REMARK    2  A    between atoms: _3  and  _4
REMARK    3  A    between atoms: _3  and  _6
REMARK    4  A    between atoms: _6  and  _7
REMARK    5  A    between atoms: _10  and  _12
REMARK    6  A    between atoms: _12  and  _13
REMARK    7  A    between atoms: _12  and  _15
REMARK    8  A    between atoms: _15  and  _16
REMARK    9  A    between atoms: _19  and  _21
REMARK   10  A    between atoms: _21  and  _22
REMARK   11  A    between atoms: _21  and  _24
REMARK   12  A    between atoms: _24  and  _25
REMARK   13  A    between atoms: _25  and  _26
REMARK   14  A    between atoms: _26  and  _27
REMARK   15  A    between atoms: _36  and  _38
REMARK   16  A    between atoms: _38  and  _39
REMARK   17  A    between atoms: _38  and  _41
REMARK   18  A    between atoms: _41  and  _42
REMARK   19  A    between atoms: _47  and  _49
REMARK   20  A    between atoms: _49  and  _50
REMARK   21  A    between atoms: _49  and  _52
REMARK   22  A    between atoms: _52  and  _53
REMARK   23  A    between atoms: _58  and  _60
REMARK   24  A    between atoms: _60  and  _61
REMARK   25  A    between atoms: _60  and  _63
REMARK   26  A    between atoms: _63  and  _64
REMARK   27  A    between atoms: _67  and  _69
REMARK   28  A    between atoms: _69  and  _70
REMARK   29  A    between atoms: _69  and  _72
REMARK   30  A    between atoms: _72  and  _73
REMARK   31  A    between atoms: _76  and  _78
REMARK   32  A    between atoms: _78  and  _79
REMARK   33  A    between atoms: _78  and  _81
REMARK   34  A    between atoms: _81  and  _82
REMARK   35  A    between atoms: _82  and  _83
REMARK   36  A    between atoms: _88  and  _90
REMARK   37  A    between atoms: _90  and  _91
REMARK   38  A    between atoms: _90  and  _93
REMARK   39  A    between atoms: _93  and  _94
REMARK   40  A    between atoms: _94  and  _95
REMARK   41  A    between atoms: _98  and  _100
REMARK   42  A    between atoms: _100  and  _101
REMARK   43  A    between atoms: _100  and  _103
REMARK   44  A    between atoms: _103  and  _104
REMARK   45  A    between atoms: _107  and  _109
REMARK   46  A    between atoms: _109  and  _110
REMARK   47  A    between atoms: _109  and  _112
REMARK   48  A    between atoms: _112  and  _113
REMARK   49  A    between atoms: _118  and  _120
REMARK   50  A    between atoms: _120  and  _121
REMARK   51  A    between atoms: _120  and  _123
REMARK   52  A    between atoms: _123  and  _124
REMARK   53  A    between atoms: _129  and  _131
REMARK   54  A    between atoms: _131  and  _132
REMARK   55  A    between atoms: _134  and  _136
REMARK   56  A    between atoms: _136  and  _137
REMARK   57  A    between atoms: _139  and  _141
REMARK   58  A    between atoms: _141  and  _142
REMARK   59  A    between atoms: _141  and  _144
REMARK   60  A    between atoms: _144  and  _145
REMARK   61  A    between atoms: _148  and  _150
REMARK   62  A    between atoms: _150  and  _151
REMARK   63  A    between atoms: _150  and  _153
REMARK   64  A    between atoms: _153  and  _154
REMARK   65  A    between atoms: _154  and  _155
REMARK   66  A    between atoms: _158  and  _160
REMARK   67  A    between atoms: _160  and  _161
REMARK   68  A    between atoms: _160  and  _163
REMARK   69  A    between atoms: _163  and  _164
REMARK   70  A    between atoms: _174  and  _176
REMARK   71  A    between atoms: _176  and  _177
REMARK   72  A    between atoms: _176  and  _179
REMARK   73  A    between atoms: _179  and  _180
REMARK   74  A    between atoms: _180  and  _181
REMARK   75  A    between atoms: _186  and  _188
REMARK   76  A    between atoms: _188  and  _189
REMARK   77  A    between atoms: _188  and  _191
REMARK   78  A    between atoms: _191  and  _192
REMARK   79  A    between atoms: _192  and  _193
REMARK   80  A    between atoms: _196  and  _198
REMARK   81  A    between atoms: _198  and  _199
REMARK   82  A    between atoms: _198  and  _201
REMARK   83  A    between atoms: _201  and  _202
REMARK   84  A    between atoms: _202  and  _203
REMARK   85  A    between atoms: _206  and  _208
REMARK   86  A    between atoms: _208  and  _209
REMARK   87  A    between atoms: _208  and  _211
REMARK   88  A    between atoms: _214  and  _216
REMARK   89  A    between atoms: _216  and  _217
REMARK   90  A    between atoms: _216  and  _219
REMARK   91  A    between atoms: _219  and  _220
REMARK   92  A    between atoms: _230  and  _232
REMARK   93  A    between atoms: _232  and  _233
REMARK   94  A    between atoms: _232  and  _235
REMARK   95  A    between atoms: _235  and  _236
REMARK   96  A    between atoms: _236  and  _237
REMARK   97  A    between atoms: _237  and  _238
REMARK   98  A    between atoms: _238  and  _239
REMARK   99  A    between atoms: _243  and  _245
REMARK  100  A    between atoms: _245  and  _246
REMARK  101  A    between atoms: _245  and  _248
REMARK  102  A    between atoms: _248  and  _249
REMARK  103  A    between atoms: _252  and  _254
REMARK  104  A    between atoms: _254  and  _255
REMARK  105  A    between atoms: _254  and  _257
REMARK  106  A    between atoms: _257  and  _258
REMARK  107  A    between atoms: _260  and  _262
REMARK  108  A    between atoms: _262  and  _263
REMARK  109  A    between atoms: _262  and  _265
REMARK  110  A    between atoms: _265  and  _266
REMARK  111  A    between atoms: _271  and  _272
REMARK  112  A    between atoms: _274  and  _276
REMARK  113  A    between atoms: _276  and  _277
REMARK  114  A    between atoms: _276  and  _279
REMARK  115  A    between atoms: _279  and  _280
REMARK  116  A    between atoms: _283  and  _285
REMARK  117  A    between atoms: _285  and  _286
REMARK  118  A    between atoms: _285  and  _288
REMARK  119  A    between atoms: _288  and  _289
REMARK  120  A    between atoms: _292  and  _294
REMARK  121  A    between atoms: _294  and  _295
REMARK  122  A    between atoms: _294  and  _297
REMARK  123  A    between atoms: _297  and  _298
REMARK  124  A    between atoms: _301  and  _303
REMARK  125  A    between atoms: _303  and  _304
REMARK  126  A    between atoms: _303  and  _306
REMARK  127  A    between atoms: _308  and  _310
REMARK  128  A    between atoms: _310  and  _311
REMARK  129  A    between atoms: _310  and  _313
REMARK  130  A    between atoms: _313  and  _314
REMARK  131  A    between atoms: _317  and  _319
REMARK  132  A    between atoms: _319  and  _320
REMARK  133  A    between atoms: _319  and  _322
REMARK  134  A    between atoms: _322  and  _323
REMARK  135  A    between atoms: _333  and  _335
REMARK  136  A    between atoms: _335  and  _336
REMARK  137  A    between atoms: _338  and  _340
REMARK  138  A    between atoms: _340  and  _341
REMARK  139  A    between atoms: _340  and  _343
REMARK  140  A    between atoms: _343  and  _344
REMARK  141  A    between atoms: _344  and  _345
REMARK  142  A    between atoms: _348  and  _350
REMARK  143  A    between atoms: _350  and  _351
REMARK  144  A    between atoms: _350  and  _353
REMARK  145  A    between atoms: _353  and  _354
REMARK  146  A    between atoms: _359  and  _360
REMARK  147  A    between atoms: _362  and  _364
REMARK  148  A    between atoms: _364  and  _365
REMARK  149  A    between atoms: _364  and  _367
REMARK  150  A    between atoms: _367  and  _368
REMARK  151  A    between atoms: _373  and  _374
REMARK  152  A    between atoms: _376  and  _378
REMARK  153  A    between atoms: _378  and  _379
REMARK  154  A    between atoms: _378  and  _381
REMARK  155  A    between atoms: _381  and  _382
REMARK  156  A    between atoms: _387  and  _388
REMARK                            x       y       z     vdW  Elec       q    Type
REMARK                         _______ _______ _______ _____ _____    ______ ____
ROOT
ATOM      1  CB  HIS A   1      11.733  30.025  27.022  0.00  0.00    +0.072 C 
ENDROOT
BRANCH   1   2
ATOM      2  CG  HIS A   1      10.566  30.195  27.948  0.00  0.00    +0.082 A 
ATOM      3  CD2 HIS A   1      10.399  30.905  29.091  0.00  0.00    +0.115 A 
ATOM      4  NE2 HIS A   1       9.130  30.646  29.549  0.00  0.00    -0.221 NA
ATOM      5  CE1 HIS A   1       8.533  29.819  28.713  0.00  0.00    +0.199 A 
ATOM      6  ND1 HIS A   1       9.376  29.535  27.738  0.00  0.00    -0.227 NA
ENDBRANCH   1   2
BRANCH   1   7
ATOM      7  CA  HIS A   1      12.886  31.010  27.237  0.00  0.00    +0.139 C 
BRANCH   7   8
ATOM      8  N   HIS A   1      13.987  30.712  26.317  0.00  0.00    -0.239 NA
ATOM      9  H   HIS A   1      14.115  29.734  25.987  0.00  0.00    +0.142 HD
ENDBRANCH   7   8
BRANCH   7  10
ATOM     10  C   HIS A   1      13.495  30.931  28.629  0.00  0.00    +0.224 C 
ATOM     11  O   HIS A   1      13.680  29.848  29.184  0.00  0.00    -0.287 OA
ENDBRANCH   7  10
ENDBRANCH   1   7
TORSDOF 4
REMARK  Name = ../refined-set-2016/1np0/1np0_pocket.pdb
REMARK  156 active torsions:
REMARK  status: ('A' for Active; 'I' for Inactive)
REMARK    1  A    between atoms: _1  and  _3
REMARK    2  A    between atoms: _3  and  _4
REMARK    3  A    between atoms: _3  and  _6
REMARK    4  A    between atoms: _6  and  _7
REMARK    5  A    between atoms: _10  and  _12
REMARK    6  A    between atoms: _12  and  _13
REMARK    7  A    between atoms: _12  and  _15
REMARK    8  A    between atoms: _15  and  _16
REMARK    9  A    between atoms: _19  and  _21
REMARK   10  A    between atoms: _21  and  _22
REMARK   11  A    between atoms: _21  and  _24
REMARK   12  A    between atoms: _24  and  _25
REMARK   13  A    between atoms: _25  and  _26
REMARK   14  A    between atoms: _26  and  _27
REMARK   15  A    between atoms: _36  and  _38
REMARK   16  A    between atoms: _38  and  _39
REMARK   17  A    between atoms: _38  and  _41
REMARK   18  A    between atoms: _41  and  _42
REMARK   19  A    between atoms: _47  and  _49
REMARK   20  A    between atoms: _49  and  _50
REMARK   21  A    between atoms: _49  and  _52
REMARK   22  A    between atoms: _52  and  _53
REMARK   23  A    between atoms: _58  and  _60
REMARK   24  A    between atoms: _60  and  _61
REMARK   25  A    between atoms: _60  and  _63
REMARK   26  A    between atoms: _63  and  _64
REMARK   27  A    between atoms: _67  and  _69
REMARK   28  A    between atoms: _69  and  _70
REMARK   29  A    between atoms: _69  and  _72
REMARK   30  A    between atoms: _72  and  _73
REMARK   31  A    between atoms: _76  and  _78
REMARK   32  A    between atoms: _78  and  _79
REMARK   33  A    between atoms: _78  and  _81
REMARK   34  A    between atoms: _81  and  _82
REMARK   35  A    between atoms: _82  and  _83
REMARK   36  A    between atoms: _88  and  _90
REMARK   37  A    between atoms: _90  and  _91
REMARK   38  A    between atoms: _90  and  _93
REMARK   39  A    between atoms: _93  and  _94
REMARK   40  A    between atoms: _94  and  _95
REMARK   41  A    between atoms: _98  and  _100
REMARK   42  A    between atoms: _100  and  _101
REMARK   43  A    between atoms: _100  and  _103
REMARK   44  A    between atoms: _103  and  _104
REMARK   45  A    between atoms: _107  and  _109
REMARK   46  A    between atoms: _109  and  _110
REMARK   47  A    between atoms: _109  and  _112
REMARK   48  A    between atoms: _112  and  _113
REMARK   49  A    between atoms: _118  and  _120
REMARK   50  A    between atoms: _120  and  _121
REMARK   51  A    between atoms: _120  and  _123
REMARK   52  A    between atoms: _123  and  _124
REMARK   53  A    between atoms: _129  and  _131
REMARK   54  A    between atoms: _131  and  _132
REMARK   55  A    between atoms: _134  and  _136
REMARK   56  A    between atoms: _136  and  _137
REMARK   57  A    between atoms: _139  and  _141
REMARK   58  A    between atoms: _141  and  _142
REMARK   59  A    between atoms: _141  and  _144
REMARK   60  A    between atoms: _144  and  _145
REMARK   61  A    between atoms: _148  and  _150
REMARK   62  A    between atoms: _150  and  _151
REMARK   63  A    between atoms: _150  and  _153
REMARK   64  A    between atoms: _153  and  _154
REMARK   65  A    between atoms: _154  and  _155
REMARK   66  A    between atoms: _158  and  _160
REMARK   67  A    between atoms: _160  and  _161
REMARK   68  A    between atoms: _160  and  _163
REMARK   69  A    between atoms: _163  and  _164
REMARK   70  A    between atoms: _174  and  _176
REMARK   71  A    between atoms: _176  and  _177
REMARK   72  A    between atoms: _176  and  _179
REMARK   73  A    between atoms: _179  and  _180
REMARK   74  A    between atoms: _180  and  _181
REMARK   75  A    between atoms: _186  and  _188
REMARK   76  A    between atoms: _188  and  _189
REMARK   77  A    between atoms: _188  and  _191
REMARK   78  A    between atoms: _191  and  _192
REMARK   79  A    between atoms: _192  and  _193
REMARK   80  A    between atoms: _196  and  _198
REMARK   81  A    between atoms: _198  and  _199
REMARK   82  A    between atoms: _198  and  _201
REMARK   83  A    between atoms: _201  and  _202
REMARK   84  A    between atoms: _202  and  _203
REMARK   85  A    between atoms: _206  and  _208
REMARK   86  A    between atoms: _208  and  _209
REMARK   87  A    between atoms: _208  and  _211
REMARK   88  A    between atoms: _214  and  _216
REMARK   89  A    between atoms: _216  and  _217
REMARK   90  A    between atoms: _216  and  _219
REMARK   91  A    between atoms: _219  and  _220
REMARK   92  A    between atoms: _230  and  _232
REMARK   93  A    between atoms: _232  and  _233
REMARK   94  A    between atoms: _232  and  _235
REMARK   95  A    between atoms: _235  and  _236
REMARK   96  A    between atoms: _236  and  _237
REMARK   97  A    between atoms: _237  and  _238
REMARK   98  A    between atoms: _238  and  _239
REMARK   99  A    between atoms: _243  and  _245
REMARK  100  A    between atoms: _245  and  _246
REMARK  101  A    between atoms: _245  and  _248
REMARK  102  A    between atoms: _248  and  _249
REMARK  103  A    between atoms: _252  and  _254
REMARK  104  A    between atoms: _254  and  _255
REMARK  105  A    between atoms: _254  and  _257
REMARK  106  A    between atoms: _257  and  _258
REMARK  107  A    between atoms: _260  and  _262
REMARK  108  A    between atoms: _262  and  _263
REMARK  109  A    between atoms: _262  and  _265
REMARK  110  A    between atoms: _265  and  _266
REMARK  111  A    between atoms: _271  and  _272
REMARK  112  A    between atoms: _274  and  _276
REMARK  113  A    between atoms: _276  and  _277
REMARK  114  A    between atoms: _276  and  _279
REMARK  115  A    between atoms: _279  and  _280
REMARK  116  A    between atoms: _283  and  _285
REMARK  117  A    between atoms: _285  and  _286
REMARK  118  A    between atoms: _285  and  _288
REMARK  119  A    between atoms: _288  and  _289
REMARK  120  A    between atoms: _292  and  _294
REMARK  121  A    between atoms: _294  and  _295
REMARK  122  A    between atoms: _294  and  _297
REMARK  123  A    between atoms: _297  and  _298
REMARK  124  A    between atoms: _301  and  _303
REMARK  125  A    between atoms: _303  and  _304
REMARK  126  A    between atoms: _303  and  _306
REMARK  127  A    between atoms: _308  and  _310
REMARK  128  A    between atoms: _310  and  _311
REMARK  129  A    between atoms: _310  and  _313
REMARK  130  A    between atoms: _313  and  _314
REMARK  131  A    between atoms: _317  and  _319
REMARK  132  A    between atoms: _319  and  _320
REMARK  133  A    between atoms: _319  and  _322
REMARK  134  A    between atoms: _322  and  _323
REMARK  135  A    between atoms: _333  and  _335
REMARK  136  A    between atoms: _335  and  _336
REMARK  137  A    between atoms: _338  and  _340
REMARK  138  A    between atoms: _340  and  _341
REMARK  139  A    between atoms: _340  and  _343
REMARK  140  A    between atoms: _343  and  _344
REMARK  141  A    between atoms: _344  and  _345
REMARK  142  A    between atoms: _348  and  _350
REMARK  143  A    between atoms: _350  and  _351
REMARK  144  A    between atoms: _350  and  _353
REMARK  145  A    between atoms: _353  and  _354
REMARK  146  A    between atoms: _359  and  _360
REMARK  147  A    between atoms: _362  and  _364
REMARK  148  A    between atoms: _364  and  _365
REMARK  149  A    between atoms: _364  and  _367
REMARK  150  A    between atoms: _367  and  _368
REMARK  151  A    between atoms: _373  and  _374
REMARK  152  A    between atoms: _376  and  _378
REMARK  153  A    between atoms: _378  and  _379
REMARK  154  A    between atoms: _378  and  _381
REMARK  155  A    between atoms: _381  and  _382
REMARK  156  A    between atoms: _387  and  _388
REMARK                            x       y       z     vdW  Elec       q    Type
REMARK                         _______ _______ _______ _____ _____    ______ ____
ROOT
ATOM      1  CB  HIS A   1      11.661  29.555  33.531  0.00  0.00    +0.072 C 
ENDROOT
BRANCH   1   2
ATOM      2  CG  HIS A   1      10.555  29.480  34.533  0.00  0.00    +0.082 A 
ATOM      3  CD2 HIS A   1      10.562  29.174  35.852  0.00  0.00    +0.115 A 
ATOM      4  NE2 HIS A   1       9.266  29.264  36.293  0.00  0.00    -0.221 NA
ATOM      5  CE1 HIS A   1       8.495  29.636  35.289  0.00  0.00    +0.199 A 
ATOM      6  ND1 HIS A   1       9.251  29.784  34.218  0.00  0.00    -0.227 NA
ENDBRANCH   1   2
BRANCH   1   7
ATOM      7  CA  HIS A   1      12.240  30.959  33.375  0.00  0.00    +0.139 C 
BRANCH   7   8
ATOM      8  N   HIS A   1      13.109  31.065  32.202  0.00  0.00    -0.239 NA
ATOM      9  H   HIS A   1      13.537  30.201  31.812  0.00  0.00    +0.142 HD
ENDBRANCH   7   8
BRANCH   7  10
ATOM     10  C   HIS A   1      13.119  31.362  34.553  0.00  0.00    +0.224 C 
ATOM     11  O   HIS A   1      13.679  30.534  35.262  0.00  0.00    -0.287 OA
ENDBRANCH   7  10
ENDBRANCH   1   7
TORSDOF 4
REMARK  Name = ../refined-set-2016/1np0/1np0_pocket.pdb
REMARK  156 active torsions:
REMARK  status: ('A' for Active; 'I' for Inactive)
REMARK    1  A    between atoms: _1  and  _3
REMARK    2  A    between atoms: _3  and  _4
REMARK    3  A    between atoms: _3  and  _6
REMARK    4  A    between atoms: _6  and  _7
REMARK    5  A    between atoms: _10  and  _12
REMARK    6  A    between atoms: _12  and  _13
REMARK    7  A    between atoms: _12  and  _15
REMARK    8  A    between atoms: _15  and  _16
REMARK    9  A    between atoms: _19  and  _21
REMARK   10  A    between atoms: _21  and  _22
REMARK   11  A    between atoms: _21  and  _24
REMARK   12  A    between atoms: _24  and  _25
REMARK   13  A    between atoms: _25  and  _26
REMARK   14  A    between atoms: _26  and  _27
REMARK   15  A    between atoms: _36  and  _38
REMARK   16  A    between atoms: _38  and  _39
REMARK   17  A    between atoms: _38  and  _41
REMARK   18  A    between atoms: _41  and  _42
REMARK   19  A    between atoms: _47  and  _49
REMARK   20  A    between atoms: _49  and  _50
REMARK   21  A    between atoms: _49  and  _52
REMARK   22  A    between atoms: _52  and  _53
REMARK   23  A    between atoms: _58  and  _60
REMARK   24  A    between atoms: _60  and  _61
REMARK   25  A    between atoms: _60  and  _63
REMARK   26  A    between atoms: _63  and  _64
REMARK   27  A    between atoms: _67  and  _69
REMARK   28  A    between atoms: _69  and  _70
REMARK   29  A    between atoms: _69  and  _72
REMARK   30  A    between atoms: _72  and  _73
REMARK   31  A    between atoms: _76  and  _78
REMARK   32  A    between atoms: _78  and  _79
REMARK   33  A    between atoms: _78  and  _81
REMARK   34  A    between atoms: _81  and  _82
REMARK   35  A    between atoms: _82  and  _83
REMARK   36  A    between atoms: _88  and  _90
REMARK   37  A    between atoms: _90  and  _91
REMARK   38  A    between atoms: _90  and  _93
REMARK   39  A    between atoms: _93  and  _94
REMARK   40  A    between atoms: _94  and  _95
REMARK   41  A    between atoms: _98  and  _100
REMARK   42  A    between atoms: _100  and  _101
REMARK   43  A    between atoms: _100  and  _103
REMARK   44  A    between atoms: _103  and  _104
REMARK   45  A    between atoms: _107  and  _109
REMARK   46  A    between atoms: _109  and  _110
REMARK   47  A    between atoms: _109  and  _112
REMARK   48  A    between atoms: _112  and  _113
REMARK   49  A    between atoms: _118  and  _120
REMARK   50  A    between atoms: _120  and  _121
REMARK   51  A    between atoms: _120  and  _123
REMARK   52  A    between atoms: _123  and  _124
REMARK   53  A    between atoms: _129  and  _131
REMARK   54  A    between atoms: _131  and  _132
REMARK   55  A    between atoms: _134  and  _136
REMARK   56  A    between atoms: _136  and  _137
REMARK   57  A    between atoms: _139  and  _141
REMARK   58  A    between atoms: _141  and  _142
REMARK   59  A    between atoms: _141  and  _144
REMARK   60  A    between atoms: _144  and  _145
REMARK   61  A    between atoms: _148  and  _150
REMARK   62  A    between atoms: _150  and  _151
REMARK   63  A    between atoms: _150  and  _153
REMARK   64  A    between atoms: _153  and  _154
REMARK   65  A    between atoms: _154  and  _155
REMARK   66  A    between atoms: _158  and  _160
REMARK   67  A    between atoms: _160  and  _161
REMARK   68  A    between atoms: _160  and  _163
REMARK   69  A    between atoms: _163  and  _164
REMARK   70  A    between atoms: _174  and  _176
REMARK   71  A    between atoms: _176  and  _177
REMARK   72  A    between atoms: _176  and  _179
REMARK   73  A    between atoms: _179  and  _180
REMARK   74  A    between atoms: _180  and  _181
REMARK   75  A    between atoms: _186  and  _188
REMARK   76  A    between atoms: _188  and  _189
REMARK   77  A    between atoms: _188  and  _191
REMARK   78  A    between atoms: _191  and  _192
REMARK   79  A    between atoms: _192  and  _193
REMARK   80  A    between atoms: _196  and  _198
REMARK   81  A    between atoms: _198  and  _199
REMARK   82  A    between atoms: _198  and  _201
REMARK   83  A    between atoms: _201  and  _202
REMARK   84  A    between atoms: _202  and  _203
REMARK   85  A    between atoms: _206  and  _208
REMARK   86  A    between atoms: _208  and  _209
REMARK   87  A    between atoms: _208  and  _211
REMARK   88  A    between atoms: _214  and  _216
REMARK   89  A    between atoms: _216  and  _217
REMARK   90  A    between atoms: _216  and  _219
REMARK   91  A    between atoms: _219  and  _220
REMARK   92  A    between atoms: _230  and  _232
REMARK   93  A    between atoms: _232  and  _233
REMARK   94  A    between atoms: _232  and  _235
REMARK   95  A    between atoms: _235  and  _236
REMARK   96  A    between atoms: _236  and  _237
REMARK   97  A    between atoms: _237  and  _238
REMARK   98  A    between atoms: _238  and  _239
REMARK   99  A    between atoms: _243  and  _245
REMARK  100  A    between atoms: _245  and  _246
REMARK  101  A    between atoms: _245  and  _248
REMARK  102  A    between atoms: _248  and  _249
REMARK  103  A    between atoms: _252  and  _254
REMARK  104  A    between atoms: _254  and  _255
REMARK  105  A    between atoms: _254  and  _257
REMARK  106  A    between atoms: _257  and  _258
REMARK  107  A    between atoms: _260  and  _262
REMARK  108  A    between atoms: _262  and  _263
REMARK  109  A    between atoms: _262  and  _265
REMARK  110  A    between atoms: _265  and  _266
REMARK  111  A    between atoms: _271  and  _272
REMARK  112  A    between atoms: _274  and  _276
REMARK  113  A    between atoms: _276  and  _277
REMARK  114  A    between atoms: _276  and  _279
REMARK  115  A    between atoms: _279  and  _280
REMARK  116  A    between atoms: _283  and  _285
REMARK  117  A    between atoms: _285  and  _286
REMARK  118  A    between atoms: _285  and  _288
REMARK  119  A    between atoms: _288  and  _289
REMARK  120  A    between atoms: _292  and  _294
REMARK  121  A    between atoms: _294  and  _295
REMARK  122  A    between atoms: _294  and  _297
REMARK  123  A    between atoms: _297  and  _298
REMARK  124  A    between atoms: _301  and  _303
REMARK  125  A    between atoms: _303  and  _304
REMARK  126  A    between atoms: _303  and  _306
REMARK  127  A    between atoms: _308  and  _310
REMARK  128  A    between atoms: _310  and  _311
REMARK  129  A    between atoms: _310  and  _313
REMARK  130  A    between atoms: _313  and  _314
REMARK  131  A    between atoms: _317  and  _319
REMARK  132  A    between atoms: _319  and  _320
REMARK  133  A    between atoms: _319  and  _322
REMARK  134  A    between atoms: _322  and  _323
REMARK  135  A    between atoms: _333  and  _335
REMARK  136  A    between atoms: _335  and  _336
REMARK  137  A    between atoms: _338  and  _340
REMARK  138  A    between atoms: _340  and  _341
REMARK  139  A    between atoms: _340  and  _343
REMARK  140  A    between atoms: _343  and  _344
REMARK  141  A    between atoms: _344  and  _345
REMARK  142  A    between atoms: _348  and  _350
REMARK  143  A    between atoms: _350  and  _351
REMARK  144  A    between atoms: _350  and  _353
REMARK  145  A    between atoms: _353  and  _354
REMARK  146  A    between atoms: _359  and  _360
REMARK  147  A    between atoms: _362  and  _364
REMARK  148  A    between atoms: _364  and  _365
REMARK  149  A    between atoms: _364  and  _367
REMARK  150  A    between atoms: _367  and  _368
REMARK  151  A    between atoms: _373  and  _374
REMARK  152  A    between atoms: _376  and  _378
REMARK  153  A    between atoms: _378  and  _379
REMARK  154  A    between atoms: _378  and  _381
REMARK  155  A    between atoms: _381  and  _382
REMARK  156  A    between atoms: _387  and  _388
REMARK                            x       y       z     vdW  Elec       q    Type
REMARK                         _______ _______ _______ _____ _____    ______ ____
ROOT
ATOM      1  CA  ASP A   2       8.988  29.673  44.219  0.00  0.00    +0.160 C 
ENDROOT
BRANCH   1   4
ATOM      2  C   ASP A   1       9.866  30.751  42.186  0.00  0.00    +0.239 C 
ATOM      3  O   ASP A   1      10.380  31.654  42.830  0.00  0.00    -0.274 OA
ATOM      4  N   ASP A   2       9.167  29.776  42.763  0.00  0.00    -0.297 N 
ATOM      5  H   ASP A   2       8.728  29.054  42.157  0.00  0.00    +0.150 HD
BRANCH   2   6
ATOM      6  CA  ASP A   1       9.987  30.754  40.649  0.00  0.00    +0.156 C 
BRANCH   6   7
ATOM      7  N   ASP A   1      11.040  31.697  40.293  0.00  0.00    -0.238 NA
ATOM      8  H   ASP A   1      11.694  32.018  41.035  0.00  0.00    +0.142 HD
ENDBRANCH   6   7
BRANCH   6   9
ATOM      9  CB  ASP A   1      10.238  29.346  40.066  0.00  0.00    +0.140 C 
BRANCH   9  10
ATOM     10  CG  ASP A   1       8.931  28.635  39.687  0.00  0.00    +0.367 C 
ATOM     11  OD2 ASP A   1       8.311  28.024  40.585  0.00  0.00    -0.246 OA
ATOM     12  OD1 ASP A   1       8.419  28.663  38.546  0.00  0.00    -0.246 OA
ENDBRANCH   9  10
ENDBRANCH   6   9
ENDBRANCH   2   6
ENDBRANCH   1   4
BRANCH   1  13
ATOM     13  C   ASP A   2      10.247  29.611  45.066  0.00  0.00    +0.241 C 
ATOM     14  O   ASP A   2      10.329  30.256  46.110  0.00  0.00    -0.273 OA
ATOM     15  N   GLN A   3      11.207  28.817  44.613  0.00  0.00    -0.298 N 
ATOM     16  H   GLN A   3      11.123  28.427  43.652  0.00  0.00    +0.150 HD
BRANCH  15  17
ATOM     17  CA  GLN A   3      12.377  28.470  45.413  0.00  0.00    +0.137 C 
BRANCH  17  18
ATOM     18  C   GLN A   3      13.423  29.570  45.558  0.00  0.00    +0.227 C 
ATOM     19  O   GLN A   3      14.107  29.632  46.578  0.00  0.00    -0.286 OA
ENDBRANCH  17  18
BRANCH  17  20
ATOM     20  CB  GLN A   3      13.042  27.209  44.860  0.00  0.00    +0.037 C 
BRANCH  20  21
ATOM     21  CG  GLN A   3      12.240  25.908  45.000  0.00  0.00    +0.087 C 
BRANCH  21  22
ATOM     22  CD  GLN A   3      11.143  25.716  43.954  0.00  0.00    +0.219 C 
ATOM     23  NE2 GLN A   3      10.482  24.570  43.998  0.00  0.00    -0.329 N 
ATOM     24 HE21 GLN A   3      10.733  23.852  44.707  0.00  0.00    +0.145 HD
ATOM     25 HE22 GLN A   3       9.712  24.388  43.323  0.00  0.00    +0.145 HD
ATOM     26  OE1 GLN A   3      10.886  26.603  43.132  0.00  0.00    -0.275 OA
ENDBRANCH  21  22
ENDBRANCH  20  21
ENDBRANCH  17  20
ENDBRANCH  15  17
ENDBRANCH   1  13
BRANCH   1  27
ATOM     27  CB  ASP A   2       8.230  28.387  44.566  0.00  0.00    +0.143 C 
BRANCH  27  28
ATOM     28  CG  ASP A   2       6.783  28.435  44.199  0.00  0.00    +0.367 C 
ATOM     29  OD2 ASP A   2       6.133  29.473  44.447  0.00  0.00    -0.246 OA
ATOM     30  OD1 ASP A   2       6.207  27.468  43.667  0.00  0.00    -0.246 OA
ENDBRANCH  27  28
ENDBRANCH   1  27
TORSDOF 13
REMARK  Name = ../refined-set-2016/1np0/1np0_pocket.pdb
REMARK  156 active torsions:
REMARK  status: ('A' for Active; 'I' for Inactive)
REMARK    1  A    between atoms: _1  and  _3
REMARK    2  A    between atoms: _3  and  _4
REMARK    3  A    between atoms: _3  and  _6
REMARK    4  A    between atoms: _6  and  _7
REMARK    5  A    between atoms: _10  and  _12
REMARK    6  A    between atoms: _12  and  _13
REMARK    7  A    between atoms: _12  and  _15
REMARK    8  A    between atoms: _15  and  _16
REMARK    9  A    between atoms: _19  and  _21
REMARK   10  A    between atoms: _21  and  _22
REMARK   11  A    between atoms: _21  and  _24
REMARK   12  A    between atoms: _24  and  _25
REMARK   13  A    between atoms: _25  and  _26
REMARK   14  A    between atoms: _26  and  _27
REMARK   15  A    between atoms: _36  and  _38
REMARK   16  A    between atoms: _38  and  _39
REMARK   17  A    between atoms: _38  and  _41
REMARK   18  A    between atoms: _41  and  _42
REMARK   19  A    between atoms: _47  and  _49
REMARK   20  A    between atoms: _49  and  _50
REMARK   21  A    between atoms: _49  and  _52
REMARK   22  A    between atoms: _52  and  _53
REMARK   23  A    between atoms: _58  and  _60
REMARK   24  A    between atoms: _60  and  _61
REMARK   25  A    between atoms: _60  and  _63
REMARK   26  A    between atoms: _63  and  _64
REMARK   27  A    between atoms: _67  and  _69
REMARK   28  A    between atoms: _69  and  _70
REMARK   29  A    between atoms: _69  and  _72
REMARK   30  A    between atoms: _72  and  _73
REMARK   31  A    between atoms: _76  and  _78
REMARK   32  A    between atoms: _78  and  _79
REMARK   33  A    between atoms: _78  and  _81
REMARK   34  A    between atoms: _81  and  _82
REMARK   35  A    between atoms: _82  and  _83
REMARK   36  A    between atoms: _88  and  _90
REMARK   37  A    between atoms: _90  and  _91
REMARK   38  A    between atoms: _90  and  _93
REMARK   39  A    between atoms: _93  and  _94
REMARK   40  A    between atoms: _94  and  _95
REMARK   41  A    between atoms: _98  and  _100
REMARK   42  A    between atoms: _100  and  _101
REMARK   43  A    between atoms: _100  and  _103
REMARK   44  A    between atoms: _103  and  _104
REMARK   45  A    between atoms: _107  and  _109
REMARK   46  A    between atoms: _109  and  _110
REMARK   47  A    between atoms: _109  and  _112
REMARK   48  A    between atoms: _112  and  _113
REMARK   49  A    between atoms: _118  and  _120
REMARK   50  A    between atoms: _120  and  _121
REMARK   51  A    between atoms: _120  and  _123
REMARK   52  A    between atoms: _123  and  _124
REMARK   53  A    between atoms: _129  and  _131
REMARK   54  A    between atoms: _131  and  _132
REMARK   55  A    between atoms: _134  and  _136
REMARK   56  A    between atoms: _136  and  _137
REMARK   57  A    between atoms: _139  and  _141
REMARK   58  A    between atoms: _141  and  _142
REMARK   59  A    between atoms: _141  and  _144
REMARK   60  A    between atoms: _144  and  _145
REMARK   61  A    between atoms: _148  and  _150
REMARK   62  A    between atoms: _150  and  _151
REMARK   63  A    between atoms: _150  and  _153
REMARK   64  A    between atoms: _153  and  _154
REMARK   65  A    between atoms: _154  and  _155
REMARK   66  A    between atoms: _158  and  _160
REMARK   67  A    between atoms: _160  and  _161
REMARK   68  A    between atoms: _160  and  _163
REMARK   69  A    between atoms: _163  and  _164
REMARK   70  A    between atoms: _174  and  _176
REMARK   71  A    between atoms: _176  and  _177
REMARK   72  A    between atoms: _176  and  _179
REMARK   73  A    between atoms: _179  and  _180
REMARK   74  A    between atoms: _180  and  _181
REMARK   75  A    between atoms: _186  and  _188
REMARK   76  A    between atoms: _188  and  _189
REMARK   77  A    between atoms: _188  and  _191
REMARK   78  A    between atoms: _191  and  _192
REMARK   79  A    between atoms: _192  and  _193
REMARK   80  A    between atoms: _196  and  _198
REMARK   81  A    between atoms: _198  and  _199
REMARK   82  A    between atoms: _198  and  _201
REMARK   83  A    between atoms: _201  and  _202
REMARK   84  A    between atoms: _202  and  _203
REMARK   85  A    between atoms: _206  and  _208
REMARK   86  A    between atoms: _208  and  _209
REMARK   87  A    between atoms: _208  and  _211
REMARK   88  A    between atoms: _214  and  _216
REMARK   89  A    between atoms: _216  and  _217
REMARK   90  A    between atoms: _216  and  _219
REMARK   91  A    between atoms: _219  and  _220
REMARK   92  A    between atoms: _230  and  _232
REMARK   93  A    between atoms: _232  and  _233
REMARK   94  A    between atoms: _232  and  _235
REMARK   95  A    between atoms: _235  and  _236
REMARK   96  A    between atoms: _236  and  _237
REMARK   97  A    between atoms: _237  and  _238
REMARK   98  A    between atoms: _238  and  _239
REMARK   99  A    between atoms: _243  and  _245
REMARK  100  A    between atoms: _245  and  _246
REMARK  101  A    between atoms: _245  and  _248
REMARK  102  A    between atoms: _248  and  _249
REMARK  103  A    between atoms: _252  and  _254
REMARK  104  A    between atoms: _254  and  _255
REMARK  105  A    between atoms: _254  and  _257
REMARK  106  A    between atoms: _257  and  _258
REMARK  107  A    between atoms: _260  and  _262
REMARK  108  A    between atoms: _262  and  _263
REMARK  109  A    between atoms: _262  and  _265
REMARK  110  A    between atoms: _265  and  _266
REMARK  111  A    between atoms: _271  and  _272
REMARK  112  A    between atoms: _274  and  _276
REMARK  113  A    between atoms: _276  and  _277
REMARK  114  A    between atoms: _276  and  _279
REMARK  115  A    between atoms: _279  and  _280
REMARK  116  A    between atoms: _283  and  _285
REMARK  117  A    between atoms: _285  and  _286
REMARK  118  A    between atoms: _285  and  _288
REMARK  119  A    between atoms: _288  and  _289
REMARK  120  A    between atoms: _292  and  _294
REMARK  121  A    between atoms: _294  and  _295
REMARK  122  A    between atoms: _294  and  _297
REMARK  123  A    between atoms: _297  and  _298
REMARK  124  A    between atoms: _301  and  _303
REMARK  125  A    between atoms: _303  and  _304
REMARK  126  A    between atoms: _303  and  _306
REMARK  127  A    between atoms: _308  and  _310
REMARK  128  A    between atoms: _310  and  _311
REMARK  129  A    between atoms: _310  and  _313
REMARK  130  A    between atoms: _313  and  _314
REMARK  131  A    between atoms: _317  and  _319
REMARK  132  A    between atoms: _319  and  _320
REMARK  133  A    between atoms: _319  and  _322
REMARK  134  A    between atoms: _322  and  _323
REMARK  135  A    between atoms: _333  and  _335
REMARK  136  A    between atoms: _335  and  _336
REMARK  137  A    between atoms: _338  and  _340
REMARK  138  A    between atoms: _340  and  _341
REMARK  139  A    between atoms: _340  and  _343
REMARK  140  A    between atoms: _343  and  _344
REMARK  141  A    between atoms: _344  and  _345
REMARK  142  A    between atoms: _348  and  _350
REMARK  143  A    between atoms: _350  and  _351
REMARK  144  A    between atoms: _350  and  _353
REMARK  145  A    between atoms: _353  and  _354
REMARK  146  A    between atoms: _359  and  _360
REMARK  147  A    between atoms: _362  and  _364
REMARK  148  A    between atoms: _364  and  _365
REMARK  149  A    between atoms: _364  and  _367
REMARK  150  A    between atoms: _367  and  _368
REMARK  151  A    between atoms: _373  and  _374
REMARK  152  A    between atoms: _376  and  _378
REMARK  153  A    between atoms: _378  and  _379
REMARK  154  A    between atoms: _378  and  _381
REMARK  155  A    between atoms: _381  and  _382
REMARK  156  A    between atoms: _387  and  _388
REMARK                            x       y       z     vdW  Elec       q    Type
REMARK                         _______ _______ _______ _____ _____    ______ ____
ROOT
ATOM      1  CA  GLU A   1       9.347  34.646  32.075  0.00  0.00    +0.134 C 
ENDROOT
BRANCH   1   2
ATOM      2  N   GLU A   1      10.576  35.028  31.411  0.00  0.00    -0.239 NA
ATOM      3  H   GLU A   1      11.474  34.605  31.722  0.00  0.00    +0.142 HD
ENDBRANCH   1   2
BRANCH   1   4
ATOM      4  C   GLU A   1       9.422  35.056  33.532  0.00  0.00    +0.224 C 
ATOM      5  O   GLU A   1      10.312  34.618  34.250  0.00  0.00    -0.287 OA
ENDBRANCH   1   4
BRANCH   1   6
ATOM      6  CB  GLU A   1       9.041  33.148  31.999  0.00  0.00    +0.037 C 
BRANCH   6   7
ATOM      7  CG  GLU A   1       7.707  32.824  32.698  0.00  0.00    +0.116 C 
BRANCH   7   8
ATOM      8  CD  GLU A   1       7.283  31.370  32.631  0.00  0.00    +0.365 C 
ATOM      9  OE2 GLU A   1       6.264  31.027  33.265  0.00  0.00    -0.246 OA
ATOM     10  OE1 GLU A   1       7.973  30.566  31.983  0.00  0.00    -0.246 OA
ENDBRANCH   7   8
ENDBRANCH   6   7
ENDBRANCH   1   6
TORSDOF 5
REMARK  Name = ../refined-set-2016/1np0/1np0_pocket.pdb
REMARK  156 active torsions:
REMARK  status: ('A' for Active; 'I' for Inactive)
REMARK    1  A    between atoms: _1  and  _3
REMARK    2  A    between atoms: _3  and  _4
REMARK    3  A    between atoms: _3  and  _6
REMARK    4  A    between atoms: _6  and  _7
REMARK    5  A    between atoms: _10  and  _12
REMARK    6  A    between atoms: _12  and  _13
REMARK    7  A    between atoms: _12  and  _15
REMARK    8  A    between atoms: _15  and  _16
REMARK    9  A    between atoms: _19  and  _21
REMARK   10  A    between atoms: _21  and  _22
REMARK   11  A    between atoms: _21  and  _24
REMARK   12  A    between atoms: _24  and  _25
REMARK   13  A    between atoms: _25  and  _26
REMARK   14  A    between atoms: _26  and  _27
REMARK   15  A    between atoms: _36  and  _38
REMARK   16  A    between atoms: _38  and  _39
REMARK   17  A    between atoms: _38  and  _41
REMARK   18  A    between atoms: _41  and  _42
REMARK   19  A    between atoms: _47  and  _49
REMARK   20  A    between atoms: _49  and  _50
REMARK   21  A    between atoms: _49  and  _52
REMARK   22  A    between atoms: _52  and  _53
REMARK   23  A    between atoms: _58  and  _60
REMARK   24  A    between atoms: _60  and  _61
REMARK   25  A    between atoms: _60  and  _63
REMARK   26  A    between atoms: _63  and  _64
REMARK   27  A    between atoms: _67  and  _69
REMARK   28  A    between atoms: _69  and  _70
REMARK   29  A    between atoms: _69  and  _72
REMARK   30  A    between atoms: _72  and  _73
REMARK   31  A    between atoms: _76  and  _78
REMARK   32  A    between atoms: _78  and  _79
REMARK   33  A    between atoms: _78  and  _81
REMARK   34  A    between atoms: _81  and  _82
REMARK   35  A    between atoms: _82  and  _83
REMARK   36  A    between atoms: _88  and  _90
REMARK   37  A    between atoms: _90  and  _91
REMARK   38  A    between atoms: _90  and  _93
REMARK   39  A    between atoms: _93  and  _94
REMARK   40  A    between atoms: _94  and  _95
REMARK   41  A    between atoms: _98  and  _100
REMARK   42  A    between atoms: _100  and  _101
REMARK   43  A    between atoms: _100  and  _103
REMARK   44  A    between atoms: _103  and  _104
REMARK   45  A    between atoms: _107  and  _109
REMARK   46  A    between atoms: _109  and  _110
REMARK   47  A    between atoms: _109  and  _112
REMARK   48  A    between atoms: _112  and  _113
REMARK   49  A    between atoms: _118  and  _120
REMARK   50  A    between atoms: _120  and  _121
REMARK   51  A    between atoms: _120  and  _123
REMARK   52  A    between atoms: _123  and  _124
REMARK   53  A    between atoms: _129  and  _131
REMARK   54  A    between atoms: _131  and  _132
REMARK   55  A    between atoms: _134  and  _136
REMARK   56  A    between atoms: _136  and  _137
REMARK   57  A    between atoms: _139  and  _141
REMARK   58  A    between atoms: _141  and  _142
REMARK   59  A    between atoms: _141  and  _144
REMARK   60  A    between atoms: _144  and  _145
REMARK   61  A    between atoms: _148  and  _150
REMARK   62  A    between atoms: _150  and  _151
REMARK   63  A    between atoms: _150  and  _153
REMARK   64  A    between atoms: _153  and  _154
REMARK   65  A    between atoms: _154  and  _155
REMARK   66  A    between atoms: _158  and  _160
REMARK   67  A    between atoms: _160  and  _161
REMARK   68  A    between atoms: _160  and  _163
REMARK   69  A    between atoms: _163  and  _164
REMARK   70  A    between atoms: _174  and  _176
REMARK   71  A    between atoms: _176  and  _177
REMARK   72  A    between atoms: _176  and  _179
REMARK   73  A    between atoms: _179  and  _180
REMARK   74  A    between atoms: _180  and  _181
REMARK   75  A    between atoms: _186  and  _188
REMARK   76  A    between atoms: _188  and  _189
REMARK   77  A    between atoms: _188  and  _191
REMARK   78  A    between atoms: _191  and  _192
REMARK   79  A    between atoms: _192  and  _193
REMARK   80  A    between atoms: _196  and  _198
REMARK   81  A    between atoms: _198  and  _199
REMARK   82  A    between atoms: _198  and  _201
REMARK   83  A    between atoms: _201  and  _202
REMARK   84  A    between atoms: _202  and  _203
REMARK   85  A    between atoms: _206  and  _208
REMARK   86  A    between atoms: _208  and  _209
REMARK   87  A    between atoms: _208  and  _211
REMARK   88  A    between atoms: _214  and  _216
REMARK   89  A    between atoms: _216  and  _217
REMARK   90  A    between atoms: _216  and  _219
REMARK   91  A    between atoms: _219  and  _220
REMARK   92  A    between atoms: _230  and  _232
REMARK   93  A    between atoms: _232  and  _233
REMARK   94  A    between atoms: _232  and  _235
REMARK   95  A    between atoms: _235  and  _236
REMARK   96  A    between atoms: _236  and  _237
REMARK   97  A    between atoms: _237  and  _238
REMARK   98  A    between atoms: _238  and  _239
REMARK   99  A    between atoms: _243  and  _245
REMARK  100  A    between atoms: _245  and  _246
REMARK  101  A    between atoms: _245  and  _248
REMARK  102  A    between atoms: _248  and  _249
REMARK  103  A    between atoms: _252  and  _254
REMARK  104  A    between atoms: _254  and  _255
REMARK  105  A    between atoms: _254  and  _257
REMARK  106  A    between atoms: _257  and  _258
REMARK  107  A    between atoms: _260  and  _262
REMARK  108  A    between atoms: _262  and  _263
REMARK  109  A    between atoms: _262  and  _265
REMARK  110  A    between atoms: _265  and  _266
REMARK  111  A    between atoms: _271  and  _272
REMARK  112  A    between atoms: _274  and  _276
REMARK  113  A    between atoms: _276  and  _277
REMARK  114  A    between atoms: _276  and  _279
REMARK  115  A    between atoms: _279  and  _280
REMARK  116  A    between atoms: _283  and  _285
REMARK  117  A    between atoms: _285  and  _286
REMARK  118  A    between atoms: _285  and  _288
REMARK  119  A    between atoms: _288  and  _289
REMARK  120  A    between atoms: _292  and  _294
REMARK  121  A    between atoms: _294  and  _295
REMARK  122  A    between atoms: _294  and  _297
REMARK  123  A    between atoms: _297  and  _298
REMARK  124  A    between atoms: _301  and  _303
REMARK  125  A    between atoms: _303  and  _304
REMARK  126  A    between atoms: _303  and  _306
REMARK  127  A    between atoms: _308  and  _310
REMARK  128  A    between atoms: _310  and  _311
REMARK  129  A    between atoms: _310  and  _313
REMARK  130  A    between atoms: _313  and  _314
REMARK  131  A    between atoms: _317  and  _319
REMARK  132  A    between atoms: _319  and  _320
REMARK  133  A    between atoms: _319  and  _322
REMARK  134  A    between atoms: _322  and  _323
REMARK  135  A    between atoms: _333  and  _335
REMARK  136  A    between atoms: _335  and  _336
REMARK  137  A    between atoms: _338  and  _340
REMARK  138  A    between atoms: _340  and  _341
REMARK  139  A    between atoms: _340  and  _343
REMARK  140  A    between atoms: _343  and  _344
REMARK  141  A    between atoms: _344  and  _345
REMARK  142  A    between atoms: _348  and  _350
REMARK  143  A    between atoms: _350  and  _351
REMARK  144  A    between atoms: _350  and  _353
REMARK  145  A    between atoms: _353  and  _354
REMARK  146  A    between atoms: _359  and  _360
REMARK  147  A    between atoms: _362  and  _364
REMARK  148  A    between atoms: _364  and  _365
REMARK  149  A    between atoms: _364  and  _367
REMARK  150  A    between atoms: _367  and  _368
REMARK  151  A    between atoms: _373  and  _374
REMARK  152  A    between atoms: _376  and  _378
REMARK  153  A    between atoms: _378  and  _379
REMARK  154  A    between atoms: _378  and  _381
REMARK  155  A    between atoms: _381  and  _382
REMARK  156  A    between atoms: _387  and  _388
REMARK                            x       y       z     vdW  Elec       q    Type
REMARK                         _______ _______ _______ _____ _____    ______ ____
ROOT
ATOM      1  CA  ASP A   1       5.603  33.845  36.334  0.00  0.00    +0.144 C 
ENDROOT
BRANCH   1   2
ATOM      2  N   ASP A   1       6.841  34.554  36.089  0.00  0.00    -0.239 NA
ATOM      3  H   ASP A   1       7.735  34.049  36.256  0.00  0.00    +0.142 HD
ENDBRANCH   1   2
BRANCH   1   4
ATOM      4  C   ASP A   1       4.811  34.384  37.535  0.00  0.00    +0.225 C 
ATOM      5  O   ASP A   1       5.365  34.566  38.610  0.00  0.00    -0.287 OA
ENDBRANCH   1   4
BRANCH   1   6
ATOM      6  CB  ASP A   1       5.988  32.382  36.567  0.00  0.00    +0.139 C 
BRANCH   6   7
ATOM      7  CG  ASP A   1       4.821  31.454  36.558  0.00  0.00    +0.367 C 
ATOM      8  OD2 ASP A   1       5.006  30.229  36.564  0.00  0.00    -0.246 OA
ATOM      9  OD1 ASP A   1       3.651  31.895  36.546  0.00  0.00    -0.246 OA
ENDBRANCH   6   7
ENDBRANCH   1   6
TORSDOF 4
REMARK  Name = ../refined-set-2016/1np0/1np0_pocket.pdb
REMARK  156 active torsions:
REMARK  status: ('A' for Active; 'I' for Inactive)
REMARK    1  A    between atoms: _1  and  _3
REMARK    2  A    between atoms: _3  and  _4
REMARK    3  A    between atoms: _3  and  _6
REMARK    4  A    between atoms: _6  and  _7
REMARK    5  A    between atoms: _10  and  _12
REMARK    6  A    between atoms: _12  and  _13
REMARK    7  A    between atoms: _12  and  _15
REMARK    8  A    between atoms: _15  and  _16
REMARK    9  A    between atoms: _19  and  _21
REMARK   10  A    between atoms: _21  and  _22
REMARK   11  A    between atoms: _21  and  _24
REMARK   12  A    between atoms: _24  and  _25
REMARK   13  A    between atoms: _25  and  _26
REMARK   14  A    between atoms: _26  and  _27
REMARK   15  A    between atoms: _36  and  _38
REMARK   16  A    between atoms: _38  and  _39
REMARK   17  A    between atoms: _38  and  _41
REMARK   18  A    between atoms: _41  and  _42
REMARK   19  A    between atoms: _47  and  _49
REMARK   20  A    between atoms: _49  and  _50
REMARK   21  A    between atoms: _49  and  _52
REMARK   22  A    between atoms: _52  and  _53
REMARK   23  A    between atoms: _58  and  _60
REMARK   24  A    between atoms: _60  and  _61
REMARK   25  A    between atoms: _60  and  _63
REMARK   26  A    between atoms: _63  and  _64
REMARK   27  A    between atoms: _67  and  _69
REMARK   28  A    between atoms: _69  and  _70
REMARK   29  A    between atoms: _69  and  _72
REMARK   30  A    between atoms: _72  and  _73
REMARK   31  A    between atoms: _76  and  _78
REMARK   32  A    between atoms: _78  and  _79
REMARK   33  A    between atoms: _78  and  _81
REMARK   34  A    between atoms: _81  and  _82
REMARK   35  A    between atoms: _82  and  _83
REMARK   36  A    between atoms: _88  and  _90
REMARK   37  A    between atoms: _90  and  _91
REMARK   38  A    between atoms: _90  and  _93
REMARK   39  A    between atoms: _93  and  _94
REMARK   40  A    between atoms: _94  and  _95
REMARK   41  A    between atoms: _98  and  _100
REMARK   42  A    between atoms: _100  and  _101
REMARK   43  A    between atoms: _100  and  _103
REMARK   44  A    between atoms: _103  and  _104
REMARK   45  A    between atoms: _107  and  _109
REMARK   46  A    between atoms: _109  and  _110
REMARK   47  A    between atoms: _109  and  _112
REMARK   48  A    between atoms: _112  and  _113
REMARK   49  A    between atoms: _118  and  _120
REMARK   50  A    between atoms: _120  and  _121
REMARK   51  A    between atoms: _120  and  _123
REMARK   52  A    between atoms: _123  and  _124
REMARK   53  A    between atoms: _129  and  _131
REMARK   54  A    between atoms: _131  and  _132
REMARK   55  A    between atoms: _134  and  _136
REMARK   56  A    between atoms: _136  and  _137
REMARK   57  A    between atoms: _139  and  _141
REMARK   58  A    between atoms: _141  and  _142
REMARK   59  A    between atoms: _141  and  _144
REMARK   60  A    between atoms: _144  and  _145
REMARK   61  A    between atoms: _148  and  _150
REMARK   62  A    between atoms: _150  and  _151
REMARK   63  A    between atoms: _150  and  _153
REMARK   64  A    between atoms: _153  and  _154
REMARK   65  A    between atoms: _154  and  _155
REMARK   66  A    between atoms: _158  and  _160
REMARK   67  A    between atoms: _160  and  _161
REMARK   68  A    between atoms: _160  and  _163
REMARK   69  A    between atoms: _163  and  _164
REMARK   70  A    between atoms: _174  and  _176
REMARK   71  A    between atoms: _176  and  _177
REMARK   72  A    between atoms: _176  and  _179
REMARK   73  A    between atoms: _179  and  _180
REMARK   74  A    between atoms: _180  and  _181
REMARK   75  A    between atoms: _186  and  _188
REMARK   76  A    between atoms: _188  and  _189
REMARK   77  A    between atoms: _188  and  _191
REMARK   78  A    between atoms: _191  and  _192
REMARK   79  A    between atoms: _192  and  _193
REMARK   80  A    between atoms: _196  and  _198
REMARK   81  A    between atoms: _198  and  _199
REMARK   82  A    between atoms: _198  and  _201
REMARK   83  A    between atoms: _201  and  _202
REMARK   84  A    between atoms: _202  and  _203
REMARK   85  A    between atoms: _206  and  _208
REMARK   86  A    between atoms: _208  and  _209
REMARK   87  A    between atoms: _208  and  _211
REMARK   88  A    between atoms: _214  and  _216
REMARK   89  A    between atoms: _216  and  _217
REMARK   90  A    between atoms: _216  and  _219
REMARK   91  A    between atoms: _219  and  _220
REMARK   92  A    between atoms: _230  and  _232
REMARK   93  A    between atoms: _232  and  _233
REMARK   94  A    between atoms: _232  and  _235
REMARK   95  A    between atoms: _235  and  _236
REMARK   96  A    between atoms: _236  and  _237
REMARK   97  A    between atoms: _237  and  _238
REMARK   98  A    between atoms: _238  and  _239
REMARK   99  A    between atoms: _243  and  _245
REMARK  100  A    between atoms: _245  and  _246
REMARK  101  A    between atoms: _245  and  _248
REMARK  102  A    between atoms: _248  and  _249
REMARK  103  A    between atoms: _252  and  _254
REMARK  104  A    between atoms: _254  and  _255
REMARK  105  A    between atoms: _254  and  _257
REMARK  106  A    between atoms: _257  and  _258
REMARK  107  A    between atoms: _260  and  _262
REMARK  108  A    between atoms: _262  and  _263
REMARK  109  A    between atoms: _262  and  _265
REMARK  110  A    between atoms: _265  and  _266
REMARK  111  A    between atoms: _271  and  _272
REMARK  112  A    between atoms: _274  and  _276
REMARK  113  A    between atoms: _276  and  _277
REMARK  114  A    between atoms: _276  and  _279
REMARK  115  A    between atoms: _279  and  _280
REMARK  116  A    between atoms: _283  and  _285
REMARK  117  A    between atoms: _285  and  _286
REMARK  118  A    between atoms: _285  and  _288
REMARK  119  A    between atoms: _288  and  _289
REMARK  120  A    between atoms: _292  and  _294
REMARK  121  A    between atoms: _294  and  _295
REMARK  122  A    between atoms: _294  and  _297
REMARK  123  A    between atoms: _297  and  _298
REMARK  124  A    between atoms: _301  and  _303
REMARK  125  A    between atoms: _303  and  _304
REMARK  126  A    between atoms: _303  and  _306
REMARK  127  A    between atoms: _308  and  _310
REMARK  128  A    between atoms: _310  and  _311
REMARK  129  A    between atoms: _310  and  _313
REMARK  130  A    between atoms: _313  and  _314
REMARK  131  A    between atoms: _317  and  _319
REMARK  132  A    between atoms: _319  and  _320
REMARK  133  A    between atoms: _319  and  _322
REMARK  134  A    between atoms: _322  and  _323
REMARK  135  A    between atoms: _333  and  _335
REMARK  136  A    between atoms: _335  and  _336
REMARK  137  A    between atoms: _338  and  _340
REMARK  138  A    between atoms: _340  and  _341
REMARK  139  A    between atoms: _340  and  _343
REMARK  140  A    between atoms: _343  and  _344
REMARK  141  A    between atoms: _344  and  _345
REMARK  142  A    between atoms: _348  and  _350
REMARK  143  A    between atoms: _350  and  _351
REMARK  144  A    between atoms: _350  and  _353
REMARK  145  A    between atoms: _353  and  _354
REMARK  146  A    between atoms: _359  and  _360
REMARK  147  A    between atoms: _362  and  _364
REMARK  148  A    between atoms: _364  and  _365
REMARK  149  A    between atoms: _364  and  _367
REMARK  150  A    between atoms: _367  and  _368
REMARK  151  A    between atoms: _373  and  _374
REMARK  152  A    between atoms: _376  and  _378
REMARK  153  A    between atoms: _378  and  _379
REMARK  154  A    between atoms: _378  and  _381
REMARK  155  A    between atoms: _381  and  _382
REMARK  156  A    between atoms: _387  and  _388
REMARK                            x       y       z     vdW  Elec       q    Type
REMARK                         _______ _______ _______ _____ _____    ______ ____
ROOT
ATOM      1  CB  HIS A   1       5.378  29.774  39.943  0.00  0.00    +0.072 C 
ENDROOT
BRANCH   1   2
ATOM      2  CG  HIS A   1       4.993  28.373  39.612  0.00  0.00    +0.082 A 
ATOM      3  ND1 HIS A   1       5.759  27.290  39.984  0.00  0.00    -0.227 NA
ATOM      4  CE1 HIS A   1       5.154  26.176  39.615  0.00  0.00    +0.199 A 
ATOM      5  NE2 HIS A   1       4.024  26.498  39.010  0.00  0.00    -0.221 NA
ATOM      6  CD2 HIS A   1       3.886  27.867  39.023  0.00  0.00    +0.115 A 
ENDBRANCH   1   2
BRANCH   1   7
ATOM      7  CA  HIS A   1       5.022  30.165  41.401  0.00  0.00    +0.139 C 
BRANCH   7   8
ATOM      8  N   HIS A   1       3.574  30.326  41.555  0.00  0.00    -0.239 NA
ATOM      9  H   HIS A   1       3.072  29.676  42.193  0.00  0.00    +0.142 HD
ENDBRANCH   7   8
BRANCH   7  10
ATOM     10  C   HIS A   1       5.808  31.378  41.885  0.00  0.00    +0.224 C 
ATOM     11  O   HIS A   1       6.892  31.647  41.369  0.00  0.00    -0.287 OA
ENDBRANCH   7  10
ENDBRANCH   1   7
TORSDOF 4
REMARK  Name = ../refined-set-2016/1np0/1np0_pocket.pdb
REMARK  156 active torsions:
REMARK  status: ('A' for Active; 'I' for Inactive)
REMARK    1  A    between atoms: _1  and  _3
REMARK    2  A    between atoms: _3  and  _4
REMARK    3  A    between atoms: _3  and  _6
REMARK    4  A    between atoms: _6  and  _7
REMARK    5  A    between atoms: _10  and  _12
REMARK    6  A    between atoms: _12  and  _13
REMARK    7  A    between atoms: _12  and  _15
REMARK    8  A    between atoms: _15  and  _16
REMARK    9  A    between atoms: _19  and  _21
REMARK   10  A    between atoms: _21  and  _22
REMARK   11  A    between atoms: _21  and  _24
REMARK   12  A    between atoms: _24  and  _25
REMARK   13  A    between atoms: _25  and  _26
REMARK   14  A    between atoms: _26  and  _27
REMARK   15  A    between atoms: _36  and  _38
REMARK   16  A    between atoms: _38  and  _39
REMARK   17  A    between atoms: _38  and  _41
REMARK   18  A    between atoms: _41  and  _42
REMARK   19  A    between atoms: _47  and  _49
REMARK   20  A    between atoms: _49  and  _50
REMARK   21  A    between atoms: _49  and  _52
REMARK   22  A    between atoms: _52  and  _53
REMARK   23  A    between atoms: _58  and  _60
REMARK   24  A    between atoms: _60  and  _61
REMARK   25  A    between atoms: _60  and  _63
REMARK   26  A    between atoms: _63  and  _64
REMARK   27  A    between atoms: _67  and  _69
REMARK   28  A    between atoms: _69  and  _70
REMARK   29  A    between atoms: _69  and  _72
REMARK   30  A    between atoms: _72  and  _73
REMARK   31  A    between atoms: _76  and  _78
REMARK   32  A    between atoms: _78  and  _79
REMARK   33  A    between atoms: _78  and  _81
REMARK   34  A    between atoms: _81  and  _82
REMARK   35  A    between atoms: _82  and  _83
REMARK   36  A    between atoms: _88  and  _90
REMARK   37  A    between atoms: _90  and  _91
REMARK   38  A    between atoms: _90  and  _93
REMARK   39  A    between atoms: _93  and  _94
REMARK   40  A    between atoms: _94  and  _95
REMARK   41  A    between atoms: _98  and  _100
REMARK   42  A    between atoms: _100  and  _101
REMARK   43  A    between atoms: _100  and  _103
REMARK   44  A    between atoms: _103  and  _104
REMARK   45  A    between atoms: _107  and  _109
REMARK   46  A    between atoms: _109  and  _110
REMARK   47  A    between atoms: _109  and  _112
REMARK   48  A    between atoms: _112  and  _113
REMARK   49  A    between atoms: _118  and  _120
REMARK   50  A    between atoms: _120  and  _121
REMARK   51  A    between atoms: _120  and  _123
REMARK   52  A    between atoms: _123  and  _124
REMARK   53  A    between atoms: _129  and  _131
REMARK   54  A    between atoms: _131  and  _132
REMARK   55  A    between atoms: _134  and  _136
REMARK   56  A    between atoms: _136  and  _137
REMARK   57  A    between atoms: _139  and  _141
REMARK   58  A    between atoms: _141  and  _142
REMARK   59  A    between atoms: _141  and  _144
REMARK   60  A    between atoms: _144  and  _145
REMARK   61  A    between atoms: _148  and  _150
REMARK   62  A    between atoms: _150  and  _151
REMARK   63  A    between atoms: _150  and  _153
REMARK   64  A    between atoms: _153  and  _154
REMARK   65  A    between atoms: _154  and  _155
REMARK   66  A    between atoms: _158  and  _160
REMARK   67  A    between atoms: _160  and  _161
REMARK   68  A    between atoms: _160  and  _163
REMARK   69  A    between atoms: _163  and  _164
REMARK   70  A    between atoms: _174  and  _176
REMARK   71  A    between atoms: _176  and  _177
REMARK   72  A    between atoms: _176  and  _179
REMARK   73  A    between atoms: _179  and  _180
REMARK   74  A    between atoms: _180  and  _181
REMARK   75  A    between atoms: _186  and  _188
REMARK   76  A    between atoms: _188  and  _189
REMARK   77  A    between atoms: _188  and  _191
REMARK   78  A    between atoms: _191  and  _192
REMARK   79  A    between atoms: _192  and  _193
REMARK   80  A    between atoms: _196  and  _198
REMARK   81  A    between atoms: _198  and  _199
REMARK   82  A    between atoms: _198  and  _201
REMARK   83  A    between atoms: _201  and  _202
REMARK   84  A    between atoms: _202  and  _203
REMARK   85  A    between atoms: _206  and  _208
REMARK   86  A    between atoms: _208  and  _209
REMARK   87  A    between atoms: _208  and  _211
REMARK   88  A    between atoms: _214  and  _216
REMARK   89  A    between atoms: _216  and  _217
REMARK   90  A    between atoms: _216  and  _219
REMARK   91  A    between atoms: _219  and  _220
REMARK   92  A    between atoms: _230  and  _232
REMARK   93  A    between atoms: _232  and  _233
REMARK   94  A    between atoms: _232  and  _235
REMARK   95  A    between atoms: _235  and  _236
REMARK   96  A    between atoms: _236  and  _237
REMARK   97  A    between atoms: _237  and  _238
REMARK   98  A    between atoms: _238  and  _239
REMARK   99  A    between atoms: _243  and  _245
REMARK  100  A    between atoms: _245  and  _246
REMARK  101  A    between atoms: _245  and  _248
REMARK  102  A    between atoms: _248  and  _249
REMARK  103  A    between atoms: _252  and  _254
REMARK  104  A    between atoms: _254  and  _255
REMARK  105  A    between atoms: _254  and  _257
REMARK  106  A    between atoms: _257  and  _258
REMARK  107  A    between atoms: _260  and  _262
REMARK  108  A    between atoms: _262  and  _263
REMARK  109  A    between atoms: _262  and  _265
REMARK  110  A    between atoms: _265  and  _266
REMARK  111  A    between atoms: _271  and  _272
REMARK  112  A    between atoms: _274  and  _276
REMARK  113  A    between atoms: _276  and  _277
REMARK  114  A    between atoms: _276  and  _279
REMARK  115  A    between atoms: _279  and  _280
REMARK  116  A    between atoms: _283  and  _285
REMARK  117  A    between atoms: _285  and  _286
REMARK  118  A    between atoms: _285  and  _288
REMARK  119  A    between atoms: _288  and  _289
REMARK  120  A    between atoms: _292  and  _294
REMARK  121  A    between atoms: _294  and  _295
REMARK  122  A    between atoms: _294  and  _297
REMARK  123  A    between atoms: _297  and  _298
REMARK  124  A    between atoms: _301  and  _303
REMARK  125  A    between atoms: _303  and  _304
REMARK  126  A    between atoms: _303  and  _306
REMARK  127  A    between atoms: _308  and  _310
REMARK  128  A    between atoms: _310  and  _311
REMARK  129  A    between atoms: _310  and  _313
REMARK  130  A    between atoms: _313  and  _314
REMARK  131  A    between atoms: _317  and  _319
REMARK  132  A    between atoms: _319  and  _320
REMARK  133  A    between atoms: _319  and  _322
REMARK  134  A    between atoms: _322  and  _323
REMARK  135  A    between atoms: _333  and  _335
REMARK  136  A    between atoms: _335  and  _336
REMARK  137  A    between atoms: _338  and  _340
REMARK  138  A    between atoms: _340  and  _341
REMARK  139  A    between atoms: _340  and  _343
REMARK  140  A    between atoms: _343  and  _344
REMARK  141  A    between atoms: _344  and  _345
REMARK  142  A    between atoms: _348  and  _350
REMARK  143  A    between atoms: _350  and  _351
REMARK  144  A    between atoms: _350  and  _353
REMARK  145  A    between atoms: _353  and  _354
REMARK  146  A    between atoms: _359  and  _360
REMARK  147  A    between atoms: _362  and  _364
REMARK  148  A    between atoms: _364  and  _365
REMARK  149  A    between atoms: _364  and  _367
REMARK  150  A    between atoms: _367  and  _368
REMARK  151  A    between atoms: _373  and  _374
REMARK  152  A    between atoms: _376  and  _378
REMARK  153  A    between atoms: _378  and  _379
REMARK  154  A    between atoms: _378  and  _381
REMARK  155  A    between atoms: _381  and  _382
REMARK  156  A    between atoms: _387  and  _388
REMARK                            x       y       z     vdW  Elec       q    Type
REMARK                         _______ _______ _______ _____ _____    ______ ____
ROOT
ATOM      1  CB  HIS A   1       6.798  34.167  29.271  0.00  0.00    +0.072 C 
ENDROOT
BRANCH   1   2
ATOM      2  CG  HIS A   1       6.012  32.906  29.126  0.00  0.00    +0.082 A 
ATOM      3  ND1 HIS A   1       5.005  32.550  29.992  0.00  0.00    -0.227 NA
ATOM      4  CE1 HIS A   1       4.479  31.402  29.612  0.00  0.00    +0.199 A 
ATOM      5  NE2 HIS A   1       5.125  30.986  28.540  0.00  0.00    -0.221 NA
ATOM      6  CD2 HIS A   1       6.091  31.907  28.217  0.00  0.00    +0.115 A 
ENDBRANCH   1   2
BRANCH   1   7
ATOM      7  CA  HIS A   1       5.943  35.433  29.300  0.00  0.00    +0.139 C 
BRANCH   7   8
ATOM      8  N   HIS A   1       6.731  36.590  28.921  0.00  0.00    -0.239 NA
ATOM      9  H   HIS A   1       7.745  36.606  29.154  0.00  0.00    +0.142 HD
ENDBRANCH   7   8
BRANCH   7  10
ATOM     10  C   HIS A   1       5.450  35.743  30.703  0.00  0.00    +0.224 C 
ATOM     11  O   HIS A   1       6.247  35.957  31.611  0.00  0.00    -0.287 OA
ENDBRANCH   7  10
ENDBRANCH   1   7
TORSDOF 4
REMARK  Name = ../refined-set-2016/1np0/1np0_pocket.pdb
REMARK  156 active torsions:
REMARK  status: ('A' for Active; 'I' for Inactive)
REMARK    1  A    between atoms: _1  and  _3
REMARK    2  A    between atoms: _3  and  _4
REMARK    3  A    between atoms: _3  and  _6
REMARK    4  A    between atoms: _6  and  _7
REMARK    5  A    between atoms: _10  and  _12
REMARK    6  A    between atoms: _12  and  _13
REMARK    7  A    between atoms: _12  and  _15
REMARK    8  A    between atoms: _15  and  _16
REMARK    9  A    between atoms: _19  and  _21
REMARK   10  A    between atoms: _21  and  _22
REMARK   11  A    between atoms: _21  and  _24
REMARK   12  A    between atoms: _24  and  _25
REMARK   13  A    between atoms: _25  and  _26
REMARK   14  A    between atoms: _26  and  _27
REMARK   15  A    between atoms: _36  and  _38
REMARK   16  A    between atoms: _38  and  _39
REMARK   17  A    between atoms: _38  and  _41
REMARK   18  A    between atoms: _41  and  _42
REMARK   19  A    between atoms: _47  and  _49
REMARK   20  A    between atoms: _49  and  _50
REMARK   21  A    between atoms: _49  and  _52
REMARK   22  A    between atoms: _52  and  _53
REMARK   23  A    between atoms: _58  and  _60
REMARK   24  A    between atoms: _60  and  _61
REMARK   25  A    between atoms: _60  and  _63
REMARK   26  A    between atoms: _63  and  _64
REMARK   27  A    between atoms: _67  and  _69
REMARK   28  A    between atoms: _69  and  _70
REMARK   29  A    between atoms: _69  and  _72
REMARK   30  A    between atoms: _72  and  _73
REMARK   31  A    between atoms: _76  and  _78
REMARK   32  A    between atoms: _78  and  _79
REMARK   33  A    between atoms: _78  and  _81
REMARK   34  A    between atoms: _81  and  _82
REMARK   35  A    between atoms: _82  and  _83
REMARK   36  A    between atoms: _88  and  _90
REMARK   37  A    between atoms: _90  and  _91
REMARK   38  A    between atoms: _90  and  _93
REMARK   39  A    between atoms: _93  and  _94
REMARK   40  A    between atoms: _94  and  _95
REMARK   41  A    between atoms: _98  and  _100
REMARK   42  A    between atoms: _100  and  _101
REMARK   43  A    between atoms: _100  and  _103
REMARK   44  A    between atoms: _103  and  _104
REMARK   45  A    between atoms: _107  and  _109
REMARK   46  A    between atoms: _109  and  _110
REMARK   47  A    between atoms: _109  and  _112
REMARK   48  A    between atoms: _112  and  _113
REMARK   49  A    between atoms: _118  and  _120
REMARK   50  A    between atoms: _120  and  _121
REMARK   51  A    between atoms: _120  and  _123
REMARK   52  A    between atoms: _123  and  _124
REMARK   53  A    between atoms: _129  and  _131
REMARK   54  A    between atoms: _131  and  _132
REMARK   55  A    between atoms: _134  and  _136
REMARK   56  A    between atoms: _136  and  _137
REMARK   57  A    between atoms: _139  and  _141
REMARK   58  A    between atoms: _141  and  _142
REMARK   59  A    between atoms: _141  and  _144
REMARK   60  A    between atoms: _144  and  _145
REMARK   61  A    between atoms: _148  and  _150
REMARK   62  A    between atoms: _150  and  _151
REMARK   63  A    between atoms: _150  and  _153
REMARK   64  A    between atoms: _153  and  _154
REMARK   65  A    between atoms: _154  and  _155
REMARK   66  A    between atoms: _158  and  _160
REMARK   67  A    between atoms: _160  and  _161
REMARK   68  A    between atoms: _160  and  _163
REMARK   69  A    between atoms: _163  and  _164
REMARK   70  A    between atoms: _174  and  _176
REMARK   71  A    between atoms: _176  and  _177
REMARK   72  A    between atoms: _176  and  _179
REMARK   73  A    between atoms: _179  and  _180
REMARK   74  A    between atoms: _180  and  _181
REMARK   75  A    between atoms: _186  and  _188
REMARK   76  A    between atoms: _188  and  _189
REMARK   77  A    between atoms: _188  and  _191
REMARK   78  A    between atoms: _191  and  _192
REMARK   79  A    between atoms: _192  and  _193
REMARK   80  A    between atoms: _196  and  _198
REMARK   81  A    between atoms: _198  and  _199
REMARK   82  A    between atoms: _198  and  _201
REMARK   83  A    between atoms: _201  and  _202
REMARK   84  A    between atoms: _202  and  _203
REMARK   85  A    between atoms: _206  and  _208
REMARK   86  A    between atoms: _208  and  _209
REMARK   87  A    between atoms: _208  and  _211
REMARK   88  A    between atoms: _214  and  _216
REMARK   89  A    between atoms: _216  and  _217
REMARK   90  A    between atoms: _216  and  _219
REMARK   91  A    between atoms: _219  and  _220
REMARK   92  A    between atoms: _230  and  _232
REMARK   93  A    between atoms: _232  and  _233
REMARK   94  A    between atoms: _232  and  _235
REMARK   95  A    between atoms: _235  and  _236
REMARK   96  A    between atoms: _236  and  _237
REMARK   97  A    between atoms: _237  and  _238
REMARK   98  A    between atoms: _238  and  _239
REMARK   99  A    between atoms: _243  and  _245
REMARK  100  A    between atoms: _245  and  _246
REMARK  101  A    between atoms: _245  and  _248
REMARK  102  A    between atoms: _248  and  _249
REMARK  103  A    between atoms: _252  and  _254
REMARK  104  A    between atoms: _254  and  _255
REMARK  105  A    between atoms: _254  and  _257
REMARK  106  A    between atoms: _257  and  _258
REMARK  107  A    between atoms: _260  and  _262
REMARK  108  A    between atoms: _262  and  _263
REMARK  109  A    between atoms: _262  and  _265
REMARK  110  A    between atoms: _265  and  _266
REMARK  111  A    between atoms: _271  and  _272
REMARK  112  A    between atoms: _274  and  _276
REMARK  113  A    between atoms: _276  and  _277
REMARK  114  A    between atoms: _276  and  _279
REMARK  115  A    between atoms: _279  and  _280
REMARK  116  A    between atoms: _283  and  _285
REMARK  117  A    between atoms: _285  and  _286
REMARK  118  A    between atoms: _285  and  _288
REMARK  119  A    between atoms: _288  and  _289
REMARK  120  A    between atoms: _292  and  _294
REMARK  121  A    between atoms: _294  and  _295
REMARK  122  A    between atoms: _294  and  _297
REMARK  123  A    between atoms: _297  and  _298
REMARK  124  A    between atoms: _301  and  _303
REMARK  125  A    between atoms: _303  and  _304
REMARK  126  A    between atoms: _303  and  _306
REMARK  127  A    between atoms: _308  and  _310
REMARK  128  A    between atoms: _310  and  _311
REMARK  129  A    between atoms: _310  and  _313
REMARK  130  A    between atoms: _313  and  _314
REMARK  131  A    between atoms: _317  and  _319
REMARK  132  A    between atoms: _319  and  _320
REMARK  133  A    between atoms: _319  and  _322
REMARK  134  A    between atoms: _322  and  _323
REMARK  135  A    between atoms: _333  and  _335
REMARK  136  A    between atoms: _335  and  _336
REMARK  137  A    between atoms: _338  and  _340
REMARK  138  A    between atoms: _340  and  _341
REMARK  139  A    between atoms: _340  and  _343
REMARK  140  A    between atoms: _343  and  _344
REMARK  141  A    between atoms: _344  and  _345
REMARK  142  A    between atoms: _348  and  _350
REMARK  143  A    between atoms: _350  and  _351
REMARK  144  A    between atoms: _350  and  _353
REMARK  145  A    between atoms: _353  and  _354
REMARK  146  A    between atoms: _359  and  _360
REMARK  147  A    between atoms: _362  and  _364
REMARK  148  A    between atoms: _364  and  _365
REMARK  149  A    between atoms: _364  and  _367
REMARK  150  A    between atoms: _367  and  _368
REMARK  151  A    between atoms: _373  and  _374
REMARK  152  A    between atoms: _376  and  _378
REMARK  153  A    between atoms: _378  and  _379
REMARK  154  A    between atoms: _378  and  _381
REMARK  155  A    between atoms: _381  and  _382
REMARK  156  A    between atoms: _387  and  _388
REMARK                            x       y       z     vdW  Elec       q    Type
REMARK                         _______ _______ _______ _____ _____    ______ ____
ROOT
ATOM      1  CA  ASP A   3       0.459  28.016  35.311  0.00  0.00    +0.160 C 
ENDROOT
BRANCH   1   3
ATOM      2  C   GLY A   2      -0.411  30.268  34.992  0.00  0.00    +0.243 C 
ATOM      3  N   ASP A   3       0.633  29.458  35.110  0.00  0.00    -0.296 N 
ATOM      4  H   ASP A   3       1.594  29.853  35.059  0.00  0.00    +0.150 HD
ATOM      5  O   GLY A   2      -1.561  29.854  35.042  0.00  0.00    -0.273 OA
BRANCH   2   6
ATOM      6  CA  GLY A   2      -0.147  31.761  34.803  0.00  0.00    +0.176 C 
BRANCH   6   8
ATOM      7  C   GLY A   1       1.737  32.120  33.293  0.00  0.00    +0.240 C 
ATOM      8  N   GLY A   2       1.235  32.123  34.525  0.00  0.00    -0.295 N 
ATOM      9  H   GLY A   2       1.852  32.394  35.317  0.00  0.00    +0.150 HD
ATOM     10  O   GLY A   1       1.073  31.824  32.292  0.00  0.00    -0.274 OA
BRANCH   7  11
ATOM     11  CA  GLY A   1       3.209  32.487  33.165  0.00  0.00    +0.169 C 
BRANCH  11  12
ATOM     12  N   GLY A   1       3.418  33.712  32.446  0.00  0.00    -0.236 NA
ATOM     13  H   GLY A   1       3.725  33.669  31.453  0.00  0.00    +0.142 HD
ENDBRANCH  11  12
ENDBRANCH   7  11
ENDBRANCH   6   8
ENDBRANCH   2   6
ENDBRANCH   1   3
BRANCH   1  14
ATOM     14  C   ASP A   3       0.207  27.663  36.774  0.00  0.00    +0.241 C 
ATOM     15  O   ASP A   3       0.624  28.400  37.669  0.00  0.00    -0.273 OA
ATOM     16  N   GLU A   4      -0.485  26.537  36.973  0.00  0.00    -0.298 N 
ATOM     17  H   GLU A   4      -0.886  26.074  36.133  0.00  0.00    +0.150 HD
BRANCH  16  18
ATOM     18  CA  GLU A   4      -0.731  25.894  38.272  0.00  0.00    +0.137 C 
BRANCH  18  19
ATOM     19  C   GLU A   4      -1.056  26.793  39.466  0.00  0.00    +0.227 C 
ATOM     20  O   GLU A   4      -0.482  26.632  40.542  0.00  0.00    -0.286 OA
ENDBRANCH  18  19
BRANCH  18  21
ATOM     21  CB  GLU A   4       0.477  25.012  38.640  0.00  0.00    +0.039 C 
BRANCH  21  22
ATOM     22  CG  GLU A   4       0.841  23.943  37.626  0.00  0.00    +0.116 C 
BRANCH  22  23
ATOM     23  CD  GLU A   4       2.141  23.237  37.974  0.00  0.00    +0.365 C 
ATOM     24  OE2 GLU A   4       3.064  23.874  38.529  0.00  0.00    -0.246 OA
ATOM     25  OE1 GLU A   4       2.252  22.034  37.667  0.00  0.00    -0.246 OA
ENDBRANCH  22  23
ENDBRANCH  21  22
ENDBRANCH  18  21
ENDBRANCH  16  18
ENDBRANCH   1  14
BRANCH   1  26
ATOM     26  CB  ASP A   3       1.686  27.234  34.855  0.00  0.00    +0.143 C 
BRANCH  26  27
ATOM     27  CG  ASP A   3       2.924  27.678  35.565  0.00  0.00    +0.367 C 
ATOM     28  OD2 ASP A   3       3.674  26.934  36.210  0.00  0.00    -0.246 OA
ATOM     29  OD1 ASP A   3       3.167  28.890  35.554  0.00  0.00    -0.246 OA
ENDBRANCH  26  27
ENDBRANCH   1  26
TORSDOF 13
REMARK  Name = ../refined-set-2016/1np0/1np0_pocket.pdb
REMARK  156 active torsions:
REMARK  status: ('A' for Active; 'I' for Inactive)
REMARK    1  A    between atoms: _1  and  _3
REMARK    2  A    between atoms: _3  and  _4
REMARK    3  A    between atoms: _3  and  _6
REMARK    4  A    between atoms: _6  and  _7
REMARK    5  A    between atoms: _10  and  _12
REMARK    6  A    between atoms: _12  and  _13
REMARK    7  A    between atoms: _12  and  _15
REMARK    8  A    between atoms: _15  and  _16
REMARK    9  A    between atoms: _19  and  _21
REMARK   10  A    between atoms: _21  and  _22
REMARK   11  A    between atoms: _21  and  _24
REMARK   12  A    between atoms: _24  and  _25
REMARK   13  A    between atoms: _25  and  _26
REMARK   14  A    between atoms: _26  and  _27
REMARK   15  A    between atoms: _36  and  _38
REMARK   16  A    between atoms: _38  and  _39
REMARK   17  A    between atoms: _38  and  _41
REMARK   18  A    between atoms: _41  and  _42
REMARK   19  A    between atoms: _47  and  _49
REMARK   20  A    between atoms: _49  and  _50
REMARK   21  A    between atoms: _49  and  _52
REMARK   22  A    between atoms: _52  and  _53
REMARK   23  A    between atoms: _58  and  _60
REMARK   24  A    between atoms: _60  and  _61
REMARK   25  A    between atoms: _60  and  _63
REMARK   26  A    between atoms: _63  and  _64
REMARK   27  A    between atoms: _67  and  _69
REMARK   28  A    between atoms: _69  and  _70
REMARK   29  A    between atoms: _69  and  _72
REMARK   30  A    between atoms: _72  and  _73
REMARK   31  A    between atoms: _76  and  _78
REMARK   32  A    between atoms: _78  and  _79
REMARK   33  A    between atoms: _78  and  _81
REMARK   34  A    between atoms: _81  and  _82
REMARK   35  A    between atoms: _82  and  _83
REMARK   36  A    between atoms: _88  and  _90
REMARK   37  A    between atoms: _90  and  _91
REMARK   38  A    between atoms: _90  and  _93
REMARK   39  A    between atoms: _93  and  _94
REMARK   40  A    between atoms: _94  and  _95
REMARK   41  A    between atoms: _98  and  _100
REMARK   42  A    between atoms: _100  and  _101
REMARK   43  A    between atoms: _100  and  _103
REMARK   44  A    between atoms: _103  and  _104
REMARK   45  A    between atoms: _107  and  _109
REMARK   46  A    between atoms: _109  and  _110
REMARK   47  A    between atoms: _109  and  _112
REMARK   48  A    between atoms: _112  and  _113
REMARK   49  A    between atoms: _118  and  _120
REMARK   50  A    between atoms: _120  and  _121
REMARK   51  A    between atoms: _120  and  _123
REMARK   52  A    between atoms: _123  and  _124
REMARK   53  A    between atoms: _129  and  _131
REMARK   54  A    between atoms: _131  and  _132
REMARK   55  A    between atoms: _134  and  _136
REMARK   56  A    between atoms: _136  and  _137
REMARK   57  A    between atoms: _139  and  _141
REMARK   58  A    between atoms: _141  and  _142
REMARK   59  A    between atoms: _141  and  _144
REMARK   60  A    between atoms: _144  and  _145
REMARK   61  A    between atoms: _148  and  _150
REMARK   62  A    between atoms: _150  and  _151
REMARK   63  A    between atoms: _150  and  _153
REMARK   64  A    between atoms: _153  and  _154
REMARK   65  A    between atoms: _154  and  _155
REMARK   66  A    between atoms: _158  and  _160
REMARK   67  A    between atoms: _160  and  _161
REMARK   68  A    between atoms: _160  and  _163
REMARK   69  A    between atoms: _163  and  _164
REMARK   70  A    between atoms: _174  and  _176
REMARK   71  A    between atoms: _176  and  _177
REMARK   72  A    between atoms: _176  and  _179
REMARK   73  A    between atoms: _179  and  _180
REMARK   74  A    between atoms: _180  and  _181
REMARK   75  A    between atoms: _186  and  _188
REMARK   76  A    between atoms: _188  and  _189
REMARK   77  A    between atoms: _188  and  _191
REMARK   78  A    between atoms: _191  and  _192
REMARK   79  A    between atoms: _192  and  _193
REMARK   80  A    between atoms: _196  and  _198
REMARK   81  A    between atoms: _198  and  _199
REMARK   82  A    between atoms: _198  and  _201
REMARK   83  A    between atoms: _201  and  _202
REMARK   84  A    between atoms: _202  and  _203
REMARK   85  A    between atoms: _206  and  _208
REMARK   86  A    between atoms: _208  and  _209
REMARK   87  A    between atoms: _208  and  _211
REMARK   88  A    between atoms: _214  and  _216
REMARK   89  A    between atoms: _216  and  _217
REMARK   90  A    between atoms: _216  and  _219
REMARK   91  A    between atoms: _219  and  _220
REMARK   92  A    between atoms: _230  and  _232
REMARK   93  A    between atoms: _232  and  _233
REMARK   94  A    between atoms: _232  and  _235
REMARK   95  A    between atoms: _235  and  _236
REMARK   96  A    between atoms: _236  and  _237
REMARK   97  A    between atoms: _237  and  _238
REMARK   98  A    between atoms: _238  and  _239
REMARK   99  A    between atoms: _243  and  _245
REMARK  100  A    between atoms: _245  and  _246
REMARK  101  A    between atoms: _245  and  _248
REMARK  102  A    between atoms: _248  and  _249
REMARK  103  A    between atoms: _252  and  _254
REMARK  104  A    between atoms: _254  and  _255
REMARK  105  A    between atoms: _254  and  _257
REMARK  106  A    between atoms: _257  and  _258
REMARK  107  A    between atoms: _260  and  _262
REMARK  108  A    between atoms: _262  and  _263
REMARK  109  A    between atoms: _262  and  _265
REMARK  110  A    between atoms: _265  and  _266
REMARK  111  A    between atoms: _271  and  _272
REMARK  112  A    between atoms: _274  and  _276
REMARK  113  A    between atoms: _276  and  _277
REMARK  114  A    between atoms: _276  and  _279
REMARK  115  A    between atoms: _279  and  _280
REMARK  116  A    between atoms: _283  and  _285
REMARK  117  A    between atoms: _285  and  _286
REMARK  118  A    between atoms: _285  and  _288
REMARK  119  A    between atoms: _288  and  _289
REMARK  120  A    between atoms: _292  and  _294
REMARK  121  A    between atoms: _294  and  _295
REMARK  122  A    between atoms: _294  and  _297
REMARK  123  A    between atoms: _297  and  _298
REMARK  124  A    between atoms: _301  and  _303
REMARK  125  A    between atoms: _303  and  _304
REMARK  126  A    between atoms: _303  and  _306
REMARK  127  A    between atoms: _308  and  _310
REMARK  128  A    between atoms: _310  and  _311
REMARK  129  A    between atoms: _310  and  _313
REMARK  130  A    between atoms: _313  and  _314
REMARK  131  A    between atoms: _317  and  _319
REMARK  132  A    between atoms: _319  and  _320
REMARK  133  A    between atoms: _319  and  _322
REMARK  134  A    between atoms: _322  and  _323
REMARK  135  A    between atoms: _333  and  _335
REMARK  136  A    between atoms: _335  and  _336
REMARK  137  A    between atoms: _338  and  _340
REMARK  138  A    between atoms: _340  and  _341
REMARK  139  A    between atoms: _340  and  _343
REMARK  140  A    between atoms: _343  and  _344
REMARK  141  A    between atoms: _344  and  _345
REMARK  142  A    between atoms: _348  and  _350
REMARK  143  A    between atoms: _350  and  _351
REMARK  144  A    between atoms: _350  and  _353
REMARK  145  A    between atoms: _353  and  _354
REMARK  146  A    between atoms: _359  and  _360
REMARK  147  A    between atoms: _362  and  _364
REMARK  148  A    between atoms: _364  and  _365
REMARK  149  A    between atoms: _364  and  _367
REMARK  150  A    between atoms: _367  and  _368
REMARK  151  A    between atoms: _373  and  _374
REMARK  152  A    between atoms: _376  and  _378
REMARK  153  A    between atoms: _378  and  _379
REMARK  154  A    between atoms: _378  and  _381
REMARK  155  A    between atoms: _381  and  _382
REMARK  156  A    between atoms: _387  and  _388
REMARK                            x       y       z     vdW  Elec       q    Type
REMARK                         _______ _______ _______ _____ _____    ______ ____
ROOT
ATOM      1  CA  GLN A   2      -2.595  27.277  28.567  0.00  0.00    +0.149 C 
ENDROOT
BRANCH   1   4
ATOM      2  C   TRP A   1      -0.875  28.776  29.509  0.00  0.00    +0.239 C 
ATOM      3  O   TRP A   1      -1.702  29.598  29.893  0.00  0.00    -0.274 OA
ATOM      4  N   GLN A   2      -1.213  27.615  28.953  0.00  0.00    -0.297 N 
ATOM      5  H   GLN A   2      -0.466  26.912  28.783  0.00  0.00    +0.150 HD
BRANCH   2   6
ATOM      6  CA  TRP A   1       0.627  29.042  29.691  0.00  0.00    +0.149 C 
BRANCH   6   7
ATOM      7  N   TRP A   1       0.820  30.496  29.664  0.00  0.00    -0.238 NA
ATOM      8  H   TRP A   1       1.051  30.996  30.546  0.00  0.00    +0.142 HD
ENDBRANCH   6   7
BRANCH   6   9
ATOM      9  CB  TRP A   1       1.105  28.423  31.003  0.00  0.00    +0.054 C 
BRANCH   9  10
ATOM     10  CG  TRP A   1       2.570  28.545  31.278  0.00  0.00    -0.002 A 
ATOM     11  CD1 TRP A   1       3.136  29.250  32.277  0.00  0.00    +0.068 A 
ATOM     12  NE1 TRP A   1       4.503  29.133  32.245  0.00  0.00    -0.352 N 
ATOM     13  HE1 TRP A   1       5.166  29.584  32.907  0.00  0.00    +0.166 HD
ATOM     14  CE2 TRP A   1       4.848  28.325  31.197  0.00  0.00    +0.056 A 
ATOM     15  CZ2 TRP A   1       6.098  27.889  30.779  0.00  0.00    +0.017 A 
ATOM     16  CH2 TRP A   1       6.146  27.048  29.705  0.00  0.00    +0.001 A 
ATOM     17  CZ3 TRP A   1       4.976  26.627  29.063  0.00  0.00    +0.000 A 
ATOM     18  CE3 TRP A   1       3.731  27.059  29.477  0.00  0.00    +0.001 A 
ATOM     19  CD2 TRP A   1       3.652  27.921  30.570  0.00  0.00    +0.013 A 
ENDBRANCH   9  10
ENDBRANCH   6   9
ENDBRANCH   2   6
ENDBRANCH   1   4
BRANCH   1  20
ATOM     20  C   GLN A   2      -3.711  27.478  29.604  0.00  0.00    +0.241 C 
ATOM     21  N   GLU A   3      -3.391  27.360  30.897  0.00  0.00    -0.298 N 
ATOM     22  H   GLU A   3      -2.405  27.146  31.151  0.00  0.00    +0.150 HD
ATOM     23  O   GLN A   2      -4.847  27.725  29.214  0.00  0.00    -0.273 OA
BRANCH  21  24
ATOM     24  CA  GLU A   3      -4.379  27.521  31.973  0.00  0.00    +0.137 C 
BRANCH  24  25
ATOM     25  C   GLU A   3      -5.150  28.823  31.917  0.00  0.00    +0.227 C 
ATOM     26  O   GLU A   3      -6.346  28.849  32.196  0.00  0.00    -0.286 OA
ENDBRANCH  24  25
BRANCH  24  27
ATOM     27  CB  GLU A   3      -3.716  27.434  33.344  0.00  0.00    +0.039 C 
BRANCH  27  28
ATOM     28  CG  GLU A   3      -3.368  26.028  33.782  0.00  0.00    +0.116 C 
BRANCH  28  29
ATOM     29  CD  GLU A   3      -1.896  25.760  33.673  0.00  0.00    +0.365 C 
ATOM     30  OE2 GLU A   3      -1.293  25.384  34.691  0.00  0.00    -0.246 OA
ATOM     31  OE1 GLU A   3      -1.330  25.942  32.576  0.00  0.00    -0.246 OA
ENDBRANCH  28  29
ENDBRANCH  27  28
ENDBRANCH  24  27
ENDBRANCH  21  24
ENDBRANCH   1  20
BRANCH   1  32
ATOM     32  CB  GLN A   2      -2.674  25.847  28.007  0.00  0.00    +0.039 C 
BRANCH  32  33
ATOM     33  CG  GLN A   2      -2.542  24.750  29.020  0.00  0.00    +0.087 C 
BRANCH  33  34
ATOM     34  CD  GLN A   2      -2.415  23.397  28.370  0.00  0.00    +0.219 C 
ATOM     35  NE2 GLN A   2      -3.467  22.581  28.478  0.00  0.00    -0.329 N 
ATOM     36 HE21 GLN A   2      -4.326  22.902  28.969  0.00  0.00    +0.145 HD
ATOM     37 HE22 GLN A   2      -3.427  21.625  28.071  0.00  0.00    +0.145 HD
ATOM     38  OE1 GLN A   2      -1.366  23.074  27.798  0.00  0.00    -0.275 OA
ENDBRANCH  33  34
ENDBRANCH  32  33
ENDBRANCH   1  32
TORSDOF 14
REMARK  Name = ../refined-set-2016/1np0/1np0_pocket.pdb
REMARK  156 active torsions:
REMARK  status: ('A' for Active; 'I' for Inactive)
REMARK    1  A    between atoms: _1  and  _3
REMARK    2  A    between atoms: _3  and  _4
REMARK    3  A    between atoms: _3  and  _6
REMARK    4  A    between atoms: _6  and  _7
REMARK    5  A    between atoms: _10  and  _12
REMARK    6  A    between atoms: _12  and  _13
REMARK    7  A    between atoms: _12  and  _15
REMARK    8  A    between atoms: _15  and  _16
REMARK    9  A    between atoms: _19  and  _21
REMARK   10  A    between atoms: _21  and  _22
REMARK   11  A    between atoms: _21  and  _24
REMARK   12  A    between atoms: _24  and  _25
REMARK   13  A    between atoms: _25  and  _26
REMARK   14  A    between atoms: _26  and  _27
REMARK   15  A    between atoms: _36  and  _38
REMARK   16  A    between atoms: _38  and  _39
REMARK   17  A    between atoms: _38  and  _41
REMARK   18  A    between atoms: _41  and  _42
REMARK   19  A    between atoms: _47  and  _49
REMARK   20  A    between atoms: _49  and  _50
REMARK   21  A    between atoms: _49  and  _52
REMARK   22  A    between atoms: _52  and  _53
REMARK   23  A    between atoms: _58  and  _60
REMARK   24  A    between atoms: _60  and  _61
REMARK   25  A    between atoms: _60  and  _63
REMARK   26  A    between atoms: _63  and  _64
REMARK   27  A    between atoms: _67  and  _69
REMARK   28  A    between atoms: _69  and  _70
REMARK   29  A    between atoms: _69  and  _72
REMARK   30  A    between atoms: _72  and  _73
REMARK   31  A    between atoms: _76  and  _78
REMARK   32  A    between atoms: _78  and  _79
REMARK   33  A    between atoms: _78  and  _81
REMARK   34  A    between atoms: _81  and  _82
REMARK   35  A    between atoms: _82  and  _83
REMARK   36  A    between atoms: _88  and  _90
REMARK   37  A    between atoms: _90  and  _91
REMARK   38  A    between atoms: _90  and  _93
REMARK   39  A    between atoms: _93  and  _94
REMARK   40  A    between atoms: _94  and  _95
REMARK   41  A    between atoms: _98  and  _100
REMARK   42  A    between atoms: _100  and  _101
REMARK   43  A    between atoms: _100  and  _103
REMARK   44  A    between atoms: _103  and  _104
REMARK   45  A    between atoms: _107  and  _109
REMARK   46  A    between atoms: _109  and  _110
REMARK   47  A    between atoms: _109  and  _112
REMARK   48  A    between atoms: _112  and  _113
REMARK   49  A    between atoms: _118  and  _120
REMARK   50  A    between atoms: _120  and  _121
REMARK   51  A    between atoms: _120  and  _123
REMARK   52  A    between atoms: _123  and  _124
REMARK   53  A    between atoms: _129  and  _131
REMARK   54  A    between atoms: _131  and  _132
REMARK   55  A    between atoms: _134  and  _136
REMARK   56  A    between atoms: _136  and  _137
REMARK   57  A    between atoms: _139  and  _141
REMARK   58  A    between atoms: _141  and  _142
REMARK   59  A    between atoms: _141  and  _144
REMARK   60  A    between atoms: _144  and  _145
REMARK   61  A    between atoms: _148  and  _150
REMARK   62  A    between atoms: _150  and  _151
REMARK   63  A    between atoms: _150  and  _153
REMARK   64  A    between atoms: _153  and  _154
REMARK   65  A    between atoms: _154  and  _155
REMARK   66  A    between atoms: _158  and  _160
REMARK   67  A    between atoms: _160  and  _161
REMARK   68  A    between atoms: _160  and  _163
REMARK   69  A    between atoms: _163  and  _164
REMARK   70  A    between atoms: _174  and  _176
REMARK   71  A    between atoms: _176  and  _177
REMARK   72  A    between atoms: _176  and  _179
REMARK   73  A    between atoms: _179  and  _180
REMARK   74  A    between atoms: _180  and  _181
REMARK   75  A    between atoms: _186  and  _188
REMARK   76  A    between atoms: _188  and  _189
REMARK   77  A    between atoms: _188  and  _191
REMARK   78  A    between atoms: _191  and  _192
REMARK   79  A    between atoms: _192  and  _193
REMARK   80  A    between atoms: _196  and  _198
REMARK   81  A    between atoms: _198  and  _199
REMARK   82  A    between atoms: _198  and  _201
REMARK   83  A    between atoms: _201  and  _202
REMARK   84  A    between atoms: _202  and  _203
REMARK   85  A    between atoms: _206  and  _208
REMARK   86  A    between atoms: _208  and  _209
REMARK   87  A    between atoms: _208  and  _211
REMARK   88  A    between atoms: _214  and  _216
REMARK   89  A    between atoms: _216  and  _217
REMARK   90  A    between atoms: _216  and  _219
REMARK   91  A    between atoms: _219  and  _220
REMARK   92  A    between atoms: _230  and  _232
REMARK   93  A    between atoms: _232  and  _233
REMARK   94  A    between atoms: _232  and  _235
REMARK   95  A    between atoms: _235  and  _236
REMARK   96  A    between atoms: _236  and  _237
REMARK   97  A    between atoms: _237  and  _238
REMARK   98  A    between atoms: _238  and  _239
REMARK   99  A    between atoms: _243  and  _245
REMARK  100  A    between atoms: _245  and  _246
REMARK  101  A    between atoms: _245  and  _248
REMARK  102  A    between atoms: _248  and  _249
REMARK  103  A    between atoms: _252  and  _254
REMARK  104  A    between atoms: _254  and  _255
REMARK  105  A    between atoms: _254  and  _257
REMARK  106  A    between atoms: _257  and  _258
REMARK  107  A    between atoms: _260  and  _262
REMARK  108  A    between atoms: _262  and  _263
REMARK  109  A    between atoms: _262  and  _265
REMARK  110  A    between atoms: _265  and  _266
REMARK  111  A    between atoms: _271  and  _272
REMARK  112  A    between atoms: _274  and  _276
REMARK  113  A    between atoms: _276  and  _277
REMARK  114  A    between atoms: _276  and  _279
REMARK  115  A    between atoms: _279  and  _280
REMARK  116  A    between atoms: _283  and  _285
REMARK  117  A    between atoms: _285  and  _286
REMARK  118  A    between atoms: _285  and  _288
REMARK  119  A    between atoms: _288  and  _289
REMARK  120  A    between atoms: _292  and  _294
REMARK  121  A    between atoms: _294  and  _295
REMARK  122  A    between atoms: _294  and  _297
REMARK  123  A    between atoms: _297  and  _298
REMARK  124  A    between atoms: _301  and  _303
REMARK  125  A    between atoms: _303  and  _304
REMARK  126  A    between atoms: _303  and  _306
REMARK  127  A    between atoms: _308  and  _310
REMARK  128  A    between atoms: _310  and  _311
REMARK  129  A    between atoms: _310  and  _313
REMARK  130  A    between atoms: _313  and  _314
REMARK  131  A    between atoms: _317  and  _319
REMARK  132  A    between atoms: _319  and  _320
REMARK  133  A    between atoms: _319  and  _322
REMARK  134  A    between atoms: _322  and  _323
REMARK  135  A    between atoms: _333  and  _335
REMARK  136  A    between atoms: _335  and  _336
REMARK  137  A    between atoms: _338  and  _340
REMARK  138  A    between atoms: _340  and  _341
REMARK  139  A    between atoms: _340  and  _343
REMARK  140  A    between atoms: _343  and  _344
REMARK  141  A    between atoms: _344  and  _345
REMARK  142  A    between atoms: _348  and  _350
REMARK  143  A    between atoms: _350  and  _351
REMARK  144  A    between atoms: _350  and  _353
REMARK  145  A    between atoms: _353  and  _354
REMARK  146  A    between atoms: _359  and  _360
REMARK  147  A    between atoms: _362  and  _364
REMARK  148  A    between atoms: _364  and  _365
REMARK  149  A    between atoms: _364  and  _367
REMARK  150  A    between atoms: _367  and  _368
REMARK  151  A    between atoms: _373  and  _374
REMARK  152  A    between atoms: _376  and  _378
REMARK  153  A    between atoms: _378  and  _379
REMARK  154  A    between atoms: _378  and  _381
REMARK  155  A    between atoms: _381  and  _382
REMARK  156  A    between atoms: _387  and  _388
REMARK                            x       y       z     vdW  Elec       q    Type
REMARK                         _______ _______ _______ _____ _____    ______ ____
ROOT
ATOM      1  CA  TRP A   3       2.287  22.387  27.953  0.00  0.00    +0.153 C 
ENDROOT
BRANCH   1   3
ATOM      2  C   VAL A   2       1.465  23.500  25.926  0.00  0.00    +0.241 C 
ATOM      3  N   TRP A   3       1.360  23.263  27.234  0.00  0.00    -0.297 N 
ATOM      4  H   TRP A   3       0.590  23.718  27.764  0.00  0.00    +0.150 HD
ATOM      5  O   VAL A   2       2.319  22.971  25.210  0.00  0.00    -0.273 OA
BRANCH   2   6
ATOM      6  CA  VAL A   2       0.439  24.482  25.334  0.00  0.00    +0.148 C 
BRANCH   6   9
ATOM      7  C   GLU A   1       1.242  26.757  25.770  0.00  0.00    +0.238 C 
ATOM      8  O   GLU A   1       0.865  26.744  26.934  0.00  0.00    -0.274 OA
ATOM      9  N   VAL A   2       1.112  25.721  24.944  0.00  0.00    -0.297 N 
ATOM     10  H   VAL A   2       1.504  25.795  23.984  0.00  0.00    +0.150 HD
BRANCH   7  11
ATOM     11  CA  GLU A   1       1.899  28.003  25.202  0.00  0.00    +0.145 C 
BRANCH  11  12
ATOM     12  N   GLU A   1       0.952  29.115  25.241  0.00  0.00    -0.238 NA
ATOM     13  H   GLU A   1       0.822  29.653  26.122  0.00  0.00    +0.142 HD
ENDBRANCH  11  12
BRANCH  11  14
ATOM     14  CB  GLU A   1       3.182  28.324  25.958  0.00  0.00    +0.038 C 
BRANCH  14  15
ATOM     15  CG  GLU A   1       4.212  27.223  25.763  0.00  0.00    +0.116 C 
BRANCH  15  16
ATOM     16  CD  GLU A   1       5.626  27.645  26.039  0.00  0.00    +0.365 C 
ATOM     17  OE2 GLU A   1       5.852  28.681  26.715  0.00  0.00    -0.246 OA
ATOM     18  OE1 GLU A   1       6.504  26.889  25.598  0.00  0.00    -0.246 OA
ENDBRANCH  15  16
ENDBRANCH  14  15
ENDBRANCH  11  14
ENDBRANCH   7  11
ENDBRANCH   6   9
BRANCH   6  19
ATOM     19  CB  VAL A   2      -0.331  23.873  24.128  0.00  0.00    +0.027 C 
ATOM     20  CG2 VAL A   2      -0.806  22.433  24.392  0.00  0.00    +0.002 C 
ATOM     21  CG1 VAL A   2      -1.517  24.760  23.767  0.00  0.00    +0.002 C 
ENDBRANCH   6  19
ENDBRANCH   2   6
ENDBRANCH   1   3
BRANCH   1  22
ATOM     22  C   TRP A   3       1.713  21.107  28.545  0.00  0.00    +0.241 C 
ATOM     23  O   TRP A   3       2.487  20.231  28.889  0.00  0.00    -0.273 OA
ATOM     24  N   LYS A   4       0.394  20.981  28.676  0.00  0.00    -0.297 N 
ATOM     25  H   LYS A   4      -0.234  21.740  28.341  0.00  0.00    +0.150 HD
BRANCH  24  26
ATOM     26  CA  LYS A   4      -0.178  19.781  29.288  0.00  0.00    +0.149 C 
BRANCH  26  27
ATOM     27  C   LYS A   4      -0.239  18.620  28.298  0.00  0.00    +0.241 C 
ATOM     28  N   ASP A   5       0.394  17.509  28.667  0.00  0.00    -0.298 N 
ATOM     29  H   ASP A   5       0.799  17.459  29.624  0.00  0.00    +0.150 HD
ATOM     30  O   LYS A   4      -0.860  18.722  27.246  0.00  0.00    -0.273 OA
BRANCH  28  31
ATOM     31  CA  ASP A   5       0.543  16.357  27.781  0.00  0.00    +0.148 C 
BRANCH  31  32
ATOM     32  C   ASP A   5      -0.754  15.601  27.471  0.00  0.00    +0.227 C 
ATOM     33  O   ASP A   5      -0.833  14.926  26.437  0.00  0.00    -0.286 OA
ENDBRANCH  31  32
BRANCH  31  34
ATOM     34  CB  ASP A   5       1.633  15.415  28.322  0.00  0.00    +0.142 C 
BRANCH  34  35
ATOM     35  CG  ASP A   5       2.239  14.524  27.247  0.00  0.00    +0.367 C 
ATOM     36  OD2 ASP A   5       2.760  13.416  27.512  0.00  0.00    -0.246 OA
ATOM     37  OD1 ASP A   5       2.236  14.900  26.054  0.00  0.00    -0.246 OA
ENDBRANCH  34  35
ENDBRANCH  31  34
ENDBRANCH  28  31
ENDBRANCH  26  27
BRANCH  26  38
ATOM     38  CB  LYS A   4      -1.541  20.080  29.890  0.00  0.00    +0.029 C 
BRANCH  38  39
ATOM     39  CG  LYS A   4      -1.466  21.071  31.042  0.00  0.00    +0.000 C 
BRANCH  39  40
ATOM     40  CD  LYS A   4      -2.800  21.248  31.701  0.00  0.00    -0.024 C 
BRANCH  40  41
ATOM     41  CE  LYS A   4      -2.697  22.122  32.934  0.00  0.00    -0.086 C 
BRANCH  41  42
ATOM     42  NZ  LYS A   4      -3.954  22.047  33.741  0.00  0.00    +0.380 N 
ATOM     43  HZ1 LYS A   4      -3.862  22.653  34.581  0.00  0.00    -0.089 HD
ATOM     44  HZ2 LYS A   4      -4.116  21.063  34.038  0.00  0.00    -0.089 HD
ATOM     45  HZ3 LYS A   4      -4.755  22.372  33.163  0.00  0.00    -0.089 HD
ENDBRANCH  41  42
ENDBRANCH  40  41
ENDBRANCH  39  40
ENDBRANCH  38  39
ENDBRANCH  26  38
ENDBRANCH  24  26
ENDBRANCH   1  22
BRANCH   1  46
ATOM     46  CB  TRP A   3       2.988  23.168  29.064  0.00  0.00    +0.057 C 
BRANCH  46  47
ATOM     47  CG  TRP A   3       2.147  23.490  30.276  0.00  0.00    -0.002 A 
ATOM     48  CD2 TRP A   3       2.012  22.710  31.470  0.00  0.00    +0.013 A 
ATOM     49  CE2 TRP A   3       1.146  23.398  32.327  0.00  0.00    +0.056 A 
ATOM     50  CZ2 TRP A   3       0.790  22.908  33.583  0.00  0.00    +0.017 A 
ATOM     51  CH2 TRP A   3       1.312  21.709  33.968  0.00  0.00    +0.001 A 
ATOM     52  CZ3 TRP A   3       2.160  20.997  33.142  0.00  0.00    +0.000 A 
ATOM     53  NE1 TRP A   3       0.777  24.553  31.692  0.00  0.00    -0.352 N 
ATOM     54  HE1 TRP A   3       0.138  25.277  32.079  0.00  0.00    +0.166 HD
ATOM     55  CE3 TRP A   3       2.525  21.484  31.893  0.00  0.00    +0.001 A 
ATOM     56  CD1 TRP A   3       1.384  24.603  30.465  0.00  0.00    +0.068 A 
ENDBRANCH  46  47
ENDBRANCH   1  46
TORSDOF 23
REMARK  Name = ../refined-set-2016/1np0/1np0_pocket.pdb
REMARK  156 active torsions:
REMARK  status: ('A' for Active; 'I' for Inactive)
REMARK    1  A    between atoms: _1  and  _3
REMARK    2  A    between atoms: _3  and  _4
REMARK    3  A    between atoms: _3  and  _6
REMARK    4  A    between atoms: _6  and  _7
REMARK    5  A    between atoms: _10  and  _12
REMARK    6  A    between atoms: _12  and  _13
REMARK    7  A    between atoms: _12  and  _15
REMARK    8  A    between atoms: _15  and  _16
REMARK    9  A    between atoms: _19  and  _21
REMARK   10  A    between atoms: _21  and  _22
REMARK   11  A    between atoms: _21  and  _24
REMARK   12  A    between atoms: _24  and  _25
REMARK   13  A    between atoms: _25  and  _26
REMARK   14  A    between atoms: _26  and  _27
REMARK   15  A    between atoms: _36  and  _38
REMARK   16  A    between atoms: _38  and  _39
REMARK   17  A    between atoms: _38  and  _41
REMARK   18  A    between atoms: _41  and  _42
REMARK   19  A    between atoms: _47  and  _49
REMARK   20  A    between atoms: _49  and  _50
REMARK   21  A    between atoms: _49  and  _52
REMARK   22  A    between atoms: _52  and  _53
REMARK   23  A    between atoms: _58  and  _60
REMARK   24  A    between atoms: _60  and  _61
REMARK   25  A    between atoms: _60  and  _63
REMARK   26  A    between atoms: _63  and  _64
REMARK   27  A    between atoms: _67  and  _69
REMARK   28  A    between atoms: _69  and  _70
REMARK   29  A    between atoms: _69  and  _72
REMARK   30  A    between atoms: _72  and  _73
REMARK   31  A    between atoms: _76  and  _78
REMARK   32  A    between atoms: _78  and  _79
REMARK   33  A    between atoms: _78  and  _81
REMARK   34  A    between atoms: _81  and  _82
REMARK   35  A    between atoms: _82  and  _83
REMARK   36  A    between atoms: _88  and  _90
REMARK   37  A    between atoms: _90  and  _91
REMARK   38  A    between atoms: _90  and  _93
REMARK   39  A    between atoms: _93  and  _94
REMARK   40  A    between atoms: _94  and  _95
REMARK   41  A    between atoms: _98  and  _100
REMARK   42  A    between atoms: _100  and  _101
REMARK   43  A    between atoms: _100  and  _103
REMARK   44  A    between atoms: _103  and  _104
REMARK   45  A    between atoms: _107  and  _109
REMARK   46  A    between atoms: _109  and  _110
REMARK   47  A    between atoms: _109  and  _112
REMARK   48  A    between atoms: _112  and  _113
REMARK   49  A    between atoms: _118  and  _120
REMARK   50  A    between atoms: _120  and  _121
REMARK   51  A    between atoms: _120  and  _123
REMARK   52  A    between atoms: _123  and  _124
REMARK   53  A    between atoms: _129  and  _131
REMARK   54  A    between atoms: _131  and  _132
REMARK   55  A    between atoms: _134  and  _136
REMARK   56  A    between atoms: _136  and  _137
REMARK   57  A    between atoms: _139  and  _141
REMARK   58  A    between atoms: _141  and  _142
REMARK   59  A    between atoms: _141  and  _144
REMARK   60  A    between atoms: _144  and  _145
REMARK   61  A    between atoms: _148  and  _150
REMARK   62  A    between atoms: _150  and  _151
REMARK   63  A    between atoms: _150  and  _153
REMARK   64  A    between atoms: _153  and  _154
REMARK   65  A    between atoms: _154  and  _155
REMARK   66  A    between atoms: _158  and  _160
REMARK   67  A    between atoms: _160  and  _161
REMARK   68  A    between atoms: _160  and  _163
REMARK   69  A    between atoms: _163  and  _164
REMARK   70  A    between atoms: _174  and  _176
REMARK   71  A    between atoms: _176  and  _177
REMARK   72  A    between atoms: _176  and  _179
REMARK   73  A    between atoms: _179  and  _180
REMARK   74  A    between atoms: _180  and  _181
REMARK   75  A    between atoms: _186  and  _188
REMARK   76  A    between atoms: _188  and  _189
REMARK   77  A    between atoms: _188  and  _191
REMARK   78  A    between atoms: _191  and  _192
REMARK   79  A    between atoms: _192  and  _193
REMARK   80  A    between atoms: _196  and  _198
REMARK   81  A    between atoms: _198  and  _199
REMARK   82  A    between atoms: _198  and  _201
REMARK   83  A    between atoms: _201  and  _202
REMARK   84  A    between atoms: _202  and  _203
REMARK   85  A    between atoms: _206  and  _208
REMARK   86  A    between atoms: _208  and  _209
REMARK   87  A    between atoms: _208  and  _211
REMARK   88  A    between atoms: _214  and  _216
REMARK   89  A    between atoms: _216  and  _217
REMARK   90  A    between atoms: _216  and  _219
REMARK   91  A    between atoms: _219  and  _220
REMARK   92  A    between atoms: _230  and  _232
REMARK   93  A    between atoms: _232  and  _233
REMARK   94  A    between atoms: _232  and  _235
REMARK   95  A    between atoms: _235  and  _236
REMARK   96  A    between atoms: _236  and  _237
REMARK   97  A    between atoms: _237  and  _238
REMARK   98  A    between atoms: _238  and  _239
REMARK   99  A    between atoms: _243  and  _245
REMARK  100  A    between atoms: _245  and  _246
REMARK  101  A    between atoms: _245  and  _248
REMARK  102  A    between atoms: _248  and  _249
REMARK  103  A    between atoms: _252  and  _254
REMARK  104  A    between atoms: _254  and  _255
REMARK  105  A    between atoms: _254  and  _257
REMARK  106  A    between atoms: _257  and  _258
REMARK  107  A    between atoms: _260  and  _262
REMARK  108  A    between atoms: _262  and  _263
REMARK  109  A    between atoms: _262  and  _265
REMARK  110  A    between atoms: _265  and  _266
REMARK  111  A    between atoms: _271  and  _272
REMARK  112  A    between atoms: _274  and  _276
REMARK  113  A    between atoms: _276  and  _277
REMARK  114  A    between atoms: _276  and  _279
REMARK  115  A    between atoms: _279  and  _280
REMARK  116  A    between atoms: _283  and  _285
REMARK  117  A    between atoms: _285  and  _286
REMARK  118  A    between atoms: _285  and  _288
REMARK  119  A    between atoms: _288  and  _289
REMARK  120  A    between atoms: _292  and  _294
REMARK  121  A    between atoms: _294  and  _295
REMARK  122  A    between atoms: _294  and  _297
REMARK  123  A    between atoms: _297  and  _298
REMARK  124  A    between atoms: _301  and  _303
REMARK  125  A    between atoms: _303  and  _304
REMARK  126  A    between atoms: _303  and  _306
REMARK  127  A    between atoms: _308  and  _310
REMARK  128  A    between atoms: _310  and  _311
REMARK  129  A    between atoms: _310  and  _313
REMARK  130  A    between atoms: _313  and  _314
REMARK  131  A    between atoms: _317  and  _319
REMARK  132  A    between atoms: _319  and  _320
REMARK  133  A    between atoms: _319  and  _322
REMARK  134  A    between atoms: _322  and  _323
REMARK  135  A    between atoms: _333  and  _335
REMARK  136  A    between atoms: _335  and  _336
REMARK  137  A    between atoms: _338  and  _340
REMARK  138  A    between atoms: _340  and  _341
REMARK  139  A    between atoms: _340  and  _343
REMARK  140  A    between atoms: _343  and  _344
REMARK  141  A    between atoms: _344  and  _345
REMARK  142  A    between atoms: _348  and  _350
REMARK  143  A    between atoms: _350  and  _351
REMARK  144  A    between atoms: _350  and  _353
REMARK  145  A    between atoms: _353  and  _354
REMARK  146  A    between atoms: _359  and  _360
REMARK  147  A    between atoms: _362  and  _364
REMARK  148  A    between atoms: _364  and  _365
REMARK  149  A    between atoms: _364  and  _367
REMARK  150  A    between atoms: _367  and  _368
REMARK  151  A    between atoms: _373  and  _374
REMARK  152  A    between atoms: _376  and  _378
REMARK  153  A    between atoms: _378  and  _379
REMARK  154  A    between atoms: _378  and  _381
REMARK  155  A    between atoms: _381  and  _382
REMARK  156  A    between atoms: _387  and  _388
REMARK                            x       y       z     vdW  Elec       q    Type
REMARK                         _______ _______ _______ _____ _____    ______ ____
ROOT
ATOM      1  CA  SER A   1       5.871  22.366  24.604  0.00  0.00    +0.163 C 
ENDROOT
BRANCH   1   2
ATOM      2  N   SER A   1       4.823  22.914  23.757  0.00  0.00    -0.237 NA
ATOM      3  H   SER A   1       3.856  22.978  24.134  0.00  0.00    +0.142 HD
ENDBRANCH   1   2
BRANCH   1   4
ATOM      4  CB  SER A   1       5.512  21.018  25.212  0.00  0.00    +0.227 C 
ATOM      5  OG  SER A   1       6.417  20.298  25.619  0.00  0.00    -0.287 OA
ENDBRANCH   1   4
BRANCH   1   6
ATOM      6  C   SER A   1       6.215  23.343  25.711  0.00  0.00    +0.162 C 
BRANCH   6   7
ATOM      7  O   SER A   1       5.248  23.296  26.739  0.00  0.00    -0.380 OA
ATOM      8  H   SER A   1       4.361  23.533  26.368  0.00  0.00    +0.211 HD
ENDBRANCH   6   7
ENDBRANCH   1   6
TORSDOF 4
REMARK  Name = ../refined-set-2016/1np0/1np0_pocket.pdb
REMARK  156 active torsions:
REMARK  status: ('A' for Active; 'I' for Inactive)
REMARK    1  A    between atoms: _1  and  _3
REMARK    2  A    between atoms: _3  and  _4
REMARK    3  A    between atoms: _3  and  _6
REMARK    4  A    between atoms: _6  and  _7
REMARK    5  A    between atoms: _10  and  _12
REMARK    6  A    between atoms: _12  and  _13
REMARK    7  A    between atoms: _12  and  _15
REMARK    8  A    between atoms: _15  and  _16
REMARK    9  A    between atoms: _19  and  _21
REMARK   10  A    between atoms: _21  and  _22
REMARK   11  A    between atoms: _21  and  _24
REMARK   12  A    between atoms: _24  and  _25
REMARK   13  A    between atoms: _25  and  _26
REMARK   14  A    between atoms: _26  and  _27
REMARK   15  A    between atoms: _36  and  _38
REMARK   16  A    between atoms: _38  and  _39
REMARK   17  A    between atoms: _38  and  _41
REMARK   18  A    between atoms: _41  and  _42
REMARK   19  A    between atoms: _47  and  _49
REMARK   20  A    between atoms: _49  and  _50
REMARK   21  A    between atoms: _49  and  _52
REMARK   22  A    between atoms: _52  and  _53
REMARK   23  A    between atoms: _58  and  _60
REMARK   24  A    between atoms: _60  and  _61
REMARK   25  A    between atoms: _60  and  _63
REMARK   26  A    between atoms: _63  and  _64
REMARK   27  A    between atoms: _67  and  _69
REMARK   28  A    between atoms: _69  and  _70
REMARK   29  A    between atoms: _69  and  _72
REMARK   30  A    between atoms: _72  and  _73
REMARK   31  A    between atoms: _76  and  _78
REMARK   32  A    between atoms: _78  and  _79
REMARK   33  A    between atoms: _78  and  _81
REMARK   34  A    between atoms: _81  and  _82
REMARK   35  A    between atoms: _82  and  _83
REMARK   36  A    between atoms: _88  and  _90
REMARK   37  A    between atoms: _90  and  _91
REMARK   38  A    between atoms: _90  and  _93
REMARK   39  A    between atoms: _93  and  _94
REMARK   40  A    between atoms: _94  and  _95
REMARK   41  A    between atoms: _98  and  _100
REMARK   42  A    between atoms: _100  and  _101
REMARK   43  A    between atoms: _100  and  _103
REMARK   44  A    between atoms: _103  and  _104
REMARK   45  A    between atoms: _107  and  _109
REMARK   46  A    between atoms: _109  and  _110
REMARK   47  A    between atoms: _109  and  _112
REMARK   48  A    between atoms: _112  and  _113
REMARK   49  A    between atoms: _118  and  _120
REMARK   50  A    between atoms: _120  and  _121
REMARK   51  A    between atoms: _120  and  _123
REMARK   52  A    between atoms: _123  and  _124
REMARK   53  A    between atoms: _129  and  _131
REMARK   54  A    between atoms: _131  and  _132
REMARK   55  A    between atoms: _134  and  _136
REMARK   56  A    between atoms: _136  and  _137
REMARK   57  A    between atoms: _139  and  _141
REMARK   58  A    between atoms: _141  and  _142
REMARK   59  A    between atoms: _141  and  _144
REMARK   60  A    between atoms: _144  and  _145
REMARK   61  A    between atoms: _148  and  _150
REMARK   62  A    between atoms: _150  and  _151
REMARK   63  A    between atoms: _150  and  _153
REMARK   64  A    between atoms: _153  and  _154
REMARK   65  A    between atoms: _154  and  _155
REMARK   66  A    between atoms: _158  and  _160
REMARK   67  A    between atoms: _160  and  _161
REMARK   68  A    between atoms: _160  and  _163
REMARK   69  A    between atoms: _163  and  _164
REMARK   70  A    between atoms: _174  and  _176
REMARK   71  A    between atoms: _176  and  _177
REMARK   72  A    between atoms: _176  and  _179
REMARK   73  A    between atoms: _179  and  _180
REMARK   74  A    between atoms: _180  and  _181
REMARK   75  A    between atoms: _186  and  _188
REMARK   76  A    between atoms: _188  and  _189
REMARK   77  A    between atoms: _188  and  _191
REMARK   78  A    between atoms: _191  and  _192
REMARK   79  A    between atoms: _192  and  _193
REMARK   80  A    between atoms: _196  and  _198
REMARK   81  A    between atoms: _198  and  _199
REMARK   82  A    between atoms: _198  and  _201
REMARK   83  A    between atoms: _201  and  _202
REMARK   84  A    between atoms: _202  and  _203
REMARK   85  A    between atoms: _206  and  _208
REMARK   86  A    between atoms: _208  and  _209
REMARK   87  A    between atoms: _208  and  _211
REMARK   88  A    between atoms: _214  and  _216
REMARK   89  A    between atoms: _216  and  _217
REMARK   90  A    between atoms: _216  and  _219
REMARK   91  A    between atoms: _219  and  _220
REMARK   92  A    between atoms: _230  and  _232
REMARK   93  A    between atoms: _232  and  _233
REMARK   94  A    between atoms: _232  and  _235
REMARK   95  A    between atoms: _235  and  _236
REMARK   96  A    between atoms: _236  and  _237
REMARK   97  A    between atoms: _237  and  _238
REMARK   98  A    between atoms: _238  and  _239
REMARK   99  A    between atoms: _243  and  _245
REMARK  100  A    between atoms: _245  and  _246
REMARK  101  A    between atoms: _245  and  _248
REMARK  102  A    between atoms: _248  and  _249
REMARK  103  A    between atoms: _252  and  _254
REMARK  104  A    between atoms: _254  and  _255
REMARK  105  A    between atoms: _254  and  _257
REMARK  106  A    between atoms: _257  and  _258
REMARK  107  A    between atoms: _260  and  _262
REMARK  108  A    between atoms: _262  and  _263
REMARK  109  A    between atoms: _262  and  _265
REMARK  110  A    between atoms: _265  and  _266
REMARK  111  A    between atoms: _271  and  _272
REMARK  112  A    between atoms: _274  and  _276
REMARK  113  A    between atoms: _276  and  _277
REMARK  114  A    between atoms: _276  and  _279
REMARK  115  A    between atoms: _279  and  _280
REMARK  116  A    between atoms: _283  and  _285
REMARK  117  A    between atoms: _285  and  _286
REMARK  118  A    between atoms: _285  and  _288
REMARK  119  A    between atoms: _288  and  _289
REMARK  120  A    between atoms: _292  and  _294
REMARK  121  A    between atoms: _294  and  _295
REMARK  122  A    between atoms: _294  and  _297
REMARK  123  A    between atoms: _297  and  _298
REMARK  124  A    between atoms: _301  and  _303
REMARK  125  A    between atoms: _303  and  _304
REMARK  126  A    between atoms: _303  and  _306
REMARK  127  A    between atoms: _308  and  _310
REMARK  128  A    between atoms: _310  and  _311
REMARK  129  A    between atoms: _310  and  _313
REMARK  130  A    between atoms: _313  and  _314
REMARK  131  A    between atoms: _317  and  _319
REMARK  132  A    between atoms: _319  and  _320
REMARK  133  A    between atoms: _319  and  _322
REMARK  134  A    between atoms: _322  and  _323
REMARK  135  A    between atoms: _333  and  _335
REMARK  136  A    between atoms: _335  and  _336
REMARK  137  A    between atoms: _338  and  _340
REMARK  138  A    between atoms: _340  and  _341
REMARK  139  A    between atoms: _340  and  _343
REMARK  140  A    between atoms: _343  and  _344
REMARK  141  A    between atoms: _344  and  _345
REMARK  142  A    between atoms: _348  and  _350
REMARK  143  A    between atoms: _350  and  _351
REMARK  144  A    between atoms: _350  and  _353
REMARK  145  A    between atoms: _353  and  _354
REMARK  146  A    between atoms: _359  and  _360
REMARK  147  A    between atoms: _362  and  _364
REMARK  148  A    between atoms: _364  and  _365
REMARK  149  A    between atoms: _364  and  _367
REMARK  150  A    between atoms: _367  and  _368
REMARK  151  A    between atoms: _373  and  _374
REMARK  152  A    between atoms: _376  and  _378
REMARK  153  A    between atoms: _378  and  _379
REMARK  154  A    between atoms: _378  and  _381
REMARK  155  A    between atoms: _381  and  _382
REMARK  156  A    between atoms: _387  and  _388
REMARK                            x       y       z     vdW  Elec       q    Type
REMARK                         _______ _______ _______ _____ _____    ______ ____
ROOT
ATOM      1  CA  LEU A   2      13.345  17.174  28.518  0.00  0.00    +0.149 C 
ENDROOT
BRANCH   1   4
ATOM      2  C   TYR A   1      10.896  17.164  28.660  0.00  0.00    +0.239 C 
ATOM      3  O   TYR A   1      10.849  15.991  28.983  0.00  0.00    -0.274 OA
ATOM      4  N   LEU A   2      12.035  17.819  28.423  0.00  0.00    -0.297 N 
ATOM      5  H   LEU A   2      11.990  18.824  28.161  0.00  0.00    +0.150 HD
BRANCH   2   6
ATOM      6  CA  TYR A   1       9.621  17.964  28.453  0.00  0.00    +0.149 C 
BRANCH   6   7
ATOM      7  N   TYR A   1       9.163  17.703  27.102  0.00  0.00    -0.238 NA
ATOM      8  H   TYR A   1       8.524  16.901  26.929  0.00  0.00    +0.142 HD
ENDBRANCH   6   7
BRANCH   6   9
ATOM      9  CB  TYR A   1       8.513  17.653  29.470  0.00  0.00    +0.053 C 
BRANCH   9  10
ATOM     10  CG  TYR A   1       7.723  18.895  29.785  0.00  0.00    -0.020 A 
ATOM     11  CD2 TYR A   1       7.436  19.244  31.085  0.00  0.00    -0.001 A 
ATOM     12  CE2 TYR A   1       6.739  20.386  31.360  0.00  0.00    +0.036 A 
ATOM     13  CZ  TYR A   1       6.338  21.213  30.317  0.00  0.00    +0.134 A 
ATOM     14  CE1 TYR A   1       6.638  20.909  29.032  0.00  0.00    +0.036 A 
ATOM     15  CD1 TYR A   1       7.324  19.766  28.765  0.00  0.00    -0.001 A 
BRANCH  13  16
ATOM     16  OH  TYR A   1       5.691  22.392  30.566  0.00  0.00    -0.506 OA
ATOM     17  HH  TYR A   1       6.272  22.976  31.115  0.00  0.00    +0.292 HD
ENDBRANCH  13  16
ENDBRANCH   9  10
ENDBRANCH   6   9
ENDBRANCH   2   6
ENDBRANCH   1   4
BRANCH   1  18
ATOM     18  C   LEU A   2      13.776  16.935  29.948  0.00  0.00    +0.241 C 
ATOM     19  N   ASP A   3      13.170  17.621  30.900  0.00  0.00    -0.297 N 
ATOM     20  H   ASP A   3      12.535  18.406  30.651  0.00  0.00    +0.150 HD
ATOM     21  O   LEU A   2      14.666  16.141  30.182  0.00  0.00    -0.273 OA
BRANCH  19  22
ATOM     22  CA  ASP A   3      13.388  17.281  32.287  0.00  0.00    +0.160 C 
BRANCH  22  23
ATOM     23  C   ASP A   3      12.791  15.901  32.621  0.00  0.00    +0.241 C 
ATOM     24  O   ASP A   3      13.286  15.233  33.511  0.00  0.00    -0.273 OA
ATOM     25  N   LEU A   4      11.765  15.449  31.896  0.00  0.00    -0.298 N 
ATOM     26  H   LEU A   4      11.370  16.046  31.141  0.00  0.00    +0.150 HD
BRANCH  25  27
ATOM     27  CA  LEU A   4      11.185  14.125  32.146  0.00  0.00    +0.137 C 
BRANCH  27  28
ATOM     28  C   LEU A   4      12.033  13.071  31.446  0.00  0.00    +0.227 C 
ATOM     29  O   LEU A   4      11.710  12.590  30.361  0.00  0.00    -0.286 OA
ENDBRANCH  27  28
BRANCH  27  30
ATOM     30  CB  LEU A   4       9.720  14.045  31.708  0.00  0.00    +0.028 C 
BRANCH  30  31
ATOM     31  CG  LEU A   4       8.725  15.048  32.329  0.00  0.00    +0.002 C 
ATOM     32  CD2 LEU A   4       8.624  14.942  33.805  0.00  0.00    +0.000 C 
ATOM     33  CD1 LEU A   4       7.330  14.884  31.718  0.00  0.00    +0.000 C 
ENDBRANCH  30  31
ENDBRANCH  27  30
ENDBRANCH  25  27
ENDBRANCH  22  23
BRANCH  22  34
ATOM     34  CB  ASP A   3      12.847  18.368  33.203  0.00  0.00    +0.143 C 
BRANCH  34  35
ATOM     35  CG  ASP A   3      11.371  18.566  33.067  0.00  0.00    +0.367 C 
ATOM     36  OD2 ASP A   3      10.636  18.538  34.061  0.00  0.00    -0.246 OA
ATOM     37  OD1 ASP A   3      10.872  18.769  31.930  0.00  0.00    -0.246 OA
ENDBRANCH  34  35
ENDBRANCH  22  34
ENDBRANCH  19  22
ENDBRANCH   1  18
BRANCH   1  38
ATOM     38  CB  LEU A   2      14.419  17.954  27.743  0.00  0.00    +0.029 C 
BRANCH  38  39
ATOM     39  CG  LEU A   2      14.226  18.170  26.231  0.00  0.00    +0.002 C 
ATOM     40  CD2 LEU A   2      13.379  17.117  25.567  0.00  0.00    +0.000 C 
ATOM     41  CD1 LEU A   2      15.574  18.238  25.519  0.00  0.00    +0.000 C 
ENDBRANCH  38  39
ENDBRANCH   1  38
TORSDOF 17
REMARK  Name = ../refined-set-2016/1np0/1np0_pocket.pdb
REMARK  156 active torsions:
REMARK  status: ('A' for Active; 'I' for Inactive)
REMARK    1  A    between atoms: _1  and  _3
REMARK    2  A    between atoms: _3  and  _4
REMARK    3  A    between atoms: _3  and  _6
REMARK    4  A    between atoms: _6  and  _7
REMARK    5  A    between atoms: _10  and  _12
REMARK    6  A    between atoms: _12  and  _13
REMARK    7  A    between atoms: _12  and  _15
REMARK    8  A    between atoms: _15  and  _16
REMARK    9  A    between atoms: _19  and  _21
REMARK   10  A    between atoms: _21  and  _22
REMARK   11  A    between atoms: _21  and  _24
REMARK   12  A    between atoms: _24  and  _25
REMARK   13  A    between atoms: _25  and  _26
REMARK   14  A    between atoms: _26  and  _27
REMARK   15  A    between atoms: _36  and  _38
REMARK   16  A    between atoms: _38  and  _39
REMARK   17  A    between atoms: _38  and  _41
REMARK   18  A    between atoms: _41  and  _42
REMARK   19  A    between atoms: _47  and  _49
REMARK   20  A    between atoms: _49  and  _50
REMARK   21  A    between atoms: _49  and  _52
REMARK   22  A    between atoms: _52  and  _53
REMARK   23  A    between atoms: _58  and  _60
REMARK   24  A    between atoms: _60  and  _61
REMARK   25  A    between atoms: _60  and  _63
REMARK   26  A    between atoms: _63  and  _64
REMARK   27  A    between atoms: _67  and  _69
REMARK   28  A    between atoms: _69  and  _70
REMARK   29  A    between atoms: _69  and  _72
REMARK   30  A    between atoms: _72  and  _73
REMARK   31  A    between atoms: _76  and  _78
REMARK   32  A    between atoms: _78  and  _79
REMARK   33  A    between atoms: _78  and  _81
REMARK   34  A    between atoms: _81  and  _82
REMARK   35  A    between atoms: _82  and  _83
REMARK   36  A    between atoms: _88  and  _90
REMARK   37  A    between atoms: _90  and  _91
REMARK   38  A    between atoms: _90  and  _93
REMARK   39  A    between atoms: _93  and  _94
REMARK   40  A    between atoms: _94  and  _95
REMARK   41  A    between atoms: _98  and  _100
REMARK   42  A    between atoms: _100  and  _101
REMARK   43  A    between atoms: _100  and  _103
REMARK   44  A    between atoms: _103  and  _104
REMARK   45  A    between atoms: _107  and  _109
REMARK   46  A    between atoms: _109  and  _110
REMARK   47  A    between atoms: _109  and  _112
REMARK   48  A    between atoms: _112  and  _113
REMARK   49  A    between atoms: _118  and  _120
REMARK   50  A    between atoms: _120  and  _121
REMARK   51  A    between atoms: _120  and  _123
REMARK   52  A    between atoms: _123  and  _124
REMARK   53  A    between atoms: _129  and  _131
REMARK   54  A    between atoms: _131  and  _132
REMARK   55  A    between atoms: _134  and  _136
REMARK   56  A    between atoms: _136  and  _137
REMARK   57  A    between atoms: _139  and  _141
REMARK   58  A    between atoms: _141  and  _142
REMARK   59  A    between atoms: _141  and  _144
REMARK   60  A    between atoms: _144  and  _145
REMARK   61  A    between atoms: _148  and  _150
REMARK   62  A    between atoms: _150  and  _151
REMARK   63  A    between atoms: _150  and  _153
REMARK   64  A    between atoms: _153  and  _154
REMARK   65  A    between atoms: _154  and  _155
REMARK   66  A    between atoms: _158  and  _160
REMARK   67  A    between atoms: _160  and  _161
REMARK   68  A    between atoms: _160  and  _163
REMARK   69  A    between atoms: _163  and  _164
REMARK   70  A    between atoms: _174  and  _176
REMARK   71  A    between atoms: _176  and  _177
REMARK   72  A    between atoms: _176  and  _179
REMARK   73  A    between atoms: _179  and  _180
REMARK   74  A    between atoms: _180  and  _181
REMARK   75  A    between atoms: _186  and  _188
REMARK   76  A    between atoms: _188  and  _189
REMARK   77  A    between atoms: _188  and  _191
REMARK   78  A    between atoms: _191  and  _192
REMARK   79  A    between atoms: _192  and  _193
REMARK   80  A    between atoms: _196  and  _198
REMARK   81  A    between atoms: _198  and  _199
REMARK   82  A    between atoms: _198  and  _201
REMARK   83  A    between atoms: _201  and  _202
REMARK   84  A    between atoms: _202  and  _203
REMARK   85  A    between atoms: _206  and  _208
REMARK   86  A    between atoms: _208  and  _209
REMARK   87  A    between atoms: _208  and  _211
REMARK   88  A    between atoms: _214  and  _216
REMARK   89  A    between atoms: _216  and  _217
REMARK   90  A    between atoms: _216  and  _219
REMARK   91  A    between atoms: _219  and  _220
REMARK   92  A    between atoms: _230  and  _232
REMARK   93  A    between atoms: _232  and  _233
REMARK   94  A    between atoms: _232  and  _235
REMARK   95  A    between atoms: _235  and  _236
REMARK   96  A    between atoms: _236  and  _237
REMARK   97  A    between atoms: _237  and  _238
REMARK   98  A    between atoms: _238  and  _239
REMARK   99  A    between atoms: _243  and  _245
REMARK  100  A    between atoms: _245  and  _246
REMARK  101  A    between atoms: _245  and  _248
REMARK  102  A    between atoms: _248  and  _249
REMARK  103  A    between atoms: _252  and  _254
REMARK  104  A    between atoms: _254  and  _255
REMARK  105  A    between atoms: _254  and  _257
REMARK  106  A    between atoms: _257  and  _258
REMARK  107  A    between atoms: _260  and  _262
REMARK  108  A    between atoms: _262  and  _263
REMARK  109  A    between atoms: _262  and  _265
REMARK  110  A    between atoms: _265  and  _266
REMARK  111  A    between atoms: _271  and  _272
REMARK  112  A    between atoms: _274  and  _276
REMARK  113  A    between atoms: _276  and  _277
REMARK  114  A    between atoms: _276  and  _279
REMARK  115  A    between atoms: _279  and  _280
REMARK  116  A    between atoms: _283  and  _285
REMARK  117  A    between atoms: _285  and  _286
REMARK  118  A    between atoms: _285  and  _288
REMARK  119  A    between atoms: _288  and  _289
REMARK  120  A    between atoms: _292  and  _294
REMARK  121  A    between atoms: _294  and  _295
REMARK  122  A    between atoms: _294  and  _297
REMARK  123  A    between atoms: _297  and  _298
REMARK  124  A    between atoms: _301  and  _303
REMARK  125  A    between atoms: _303  and  _304
REMARK  126  A    between atoms: _303  and  _306
REMARK  127  A    between atoms: _308  and  _310
REMARK  128  A    between atoms: _310  and  _311
REMARK  129  A    between atoms: _310  and  _313
REMARK  130  A    between atoms: _313  and  _314
REMARK  131  A    between atoms: _317  and  _319
REMARK  132  A    between atoms: _319  and  _320
REMARK  133  A    between atoms: _319  and  _322
REMARK  134  A    between atoms: _322  and  _323
REMARK  135  A    between atoms: _333  and  _335
REMARK  136  A    between atoms: _335  and  _336
REMARK  137  A    between atoms: _338  and  _340
REMARK  138  A    between atoms: _340  and  _341
REMARK  139  A    between atoms: _340  and  _343
REMARK  140  A    between atoms: _343  and  _344
REMARK  141  A    between atoms: _344  and  _345
REMARK  142  A    between atoms: _348  and  _350
REMARK  143  A    between atoms: _350  and  _351
REMARK  144  A    between atoms: _350  and  _353
REMARK  145  A    between atoms: _353  and  _354
REMARK  146  A    between atoms: _359  and  _360
REMARK  147  A    between atoms: _362  and  _364
REMARK  148  A    between atoms: _364  and  _365
REMARK  149  A    between atoms: _364  and  _367
REMARK  150  A    between atoms: _367  and  _368
REMARK  151  A    between atoms: _373  and  _374
REMARK  152  A    between atoms: _376  and  _378
REMARK  153  A    between atoms: _378  and  _379
REMARK  154  A    between atoms: _378  and  _381
REMARK  155  A    between atoms: _381  and  _382
REMARK  156  A    between atoms: _387  and  _388
REMARK                            x       y       z     vdW  Elec       q    Type
REMARK                         _______ _______ _______ _____ _____    ______ ____
ROOT
ATOM      1  C   TRP A   3      13.819  22.006  35.110  0.00  0.00    +0.241 C 
ATOM      2  N   GLY A   4      13.983  22.819  36.146  0.00  0.00    -0.295 N 
ATOM      3  H   GLY A   4      13.245  23.521  36.355  0.00  0.00    +0.150 HD
ATOM      4  O   TRP A   3      14.465  20.963  34.936  0.00  0.00    -0.273 OA
ENDROOT
BRANCH   2   5
ATOM      5  CA  GLY A   4      15.159  22.762  37.000  0.00  0.00    +0.176 C 
BRANCH   5   6
ATOM      6  C   GLY A   4      15.174  22.028  38.313  0.00  0.00    +0.243 C 
ATOM      7  O   GLY A   4      16.194  22.087  38.993  0.00  0.00    -0.273 OA
ATOM      8  N   GLU A   5      14.088  21.365  38.694  0.00  0.00    -0.297 N 
ATOM      9  H   GLU A   5      13.250  21.356  38.078  0.00  0.00    +0.150 HD
BRANCH   8  10
ATOM     10  CA  GLU A   5      14.054  20.647  39.970  0.00  0.00    +0.149 C 
BRANCH  10  11
ATOM     11  C   GLU A   5      15.251  19.700  40.177  0.00  0.00    +0.241 C 
ATOM     12  O   GLU A   5      15.755  19.586  41.293  0.00  0.00    -0.273 OA
ATOM     13  N   TYR A   6      15.674  19.017  39.108  0.00  0.00    -0.298 N 
ATOM     14  H   TYR A   6      15.225  19.203  38.189  0.00  0.00    +0.150 HD
BRANCH  13  15
ATOM     15  CA  TYR A   6      16.735  18.026  39.176  0.00  0.00    +0.141 C 
BRANCH  15  16
ATOM     16  C   TYR A   6      17.923  18.401  38.310  0.00  0.00    +0.227 C 
ATOM     17  O   TYR A   6      18.824  17.578  38.130  0.00  0.00    -0.286 OA
ENDBRANCH  15  16
BRANCH  15  18
ATOM     18  CB  TYR A   6      16.163  16.666  38.774  0.00  0.00    +0.054 C 
BRANCH  18  19
ATOM     19  CG  TYR A   6      14.952  16.336  39.611  0.00  0.00    -0.020 A 
ATOM     20  CD2 TYR A   6      15.091  16.007  40.952  0.00  0.00    -0.001 A 
ATOM     21  CE2 TYR A   6      13.998  15.729  41.733  0.00  0.00    +0.036 A 
ATOM     22  CZ  TYR A   6      12.734  15.820  41.186  0.00  0.00    +0.134 A 
ATOM     23  CE1 TYR A   6      12.570  16.154  39.867  0.00  0.00    +0.036 A 
ATOM     24  CD1 TYR A   6      13.672  16.419  39.091  0.00  0.00    -0.001 A 
BRANCH  22  25
ATOM     25  OH  TYR A   6      11.634  15.559  41.971  0.00  0.00    -0.506 OA
ATOM     26  HH  TYR A   6      11.930  15.336  42.889  0.00  0.00    +0.292 HD
ENDBRANCH  22  25
ENDBRANCH  18  19
ENDBRANCH  15  18
ENDBRANCH  13  15
ENDBRANCH  10  11
BRANCH  10  27
ATOM     27  CB  GLU A   5      12.785  19.797  40.087  0.00  0.00    +0.041 C 
BRANCH  27  28
ATOM     28  CG  GLU A   5      11.491  20.565  40.328  0.00  0.00    +0.116 C 
BRANCH  28  29
ATOM     29  CD  GLU A   5      10.827  21.084  39.063  0.00  0.00    +0.365 C 
ATOM     30  OE2 GLU A   5       9.704  21.575  39.182  0.00  0.00    -0.246 OA
ATOM     31  OE1 GLU A   5      11.412  21.020  37.960  0.00  0.00    -0.246 OA
ENDBRANCH  28  29
ENDBRANCH  27  28
ENDBRANCH  10  27
ENDBRANCH   8  10
ENDBRANCH   5   6
ENDBRANCH   2   5
BRANCH   1  32
ATOM     32  CA  TRP A   3      12.747  22.438  34.138  0.00  0.00    +0.153 C 
BRANCH  32  34
ATOM     33  C   LEU A   2      14.116  22.331  32.117  0.00  0.00    +0.241 C 
ATOM     34  N   TRP A   3      13.046  21.936  32.799  0.00  0.00    -0.297 N 
ATOM     35  H   TRP A   3      12.400  21.246  32.365  0.00  0.00    +0.150 HD
ATOM     36  O   LEU A   2      14.912  23.160  32.542  0.00  0.00    -0.273 OA
BRANCH  33  37
ATOM     37  CA  LEU A   2      14.326  21.671  30.756  0.00  0.00    +0.149 C 
BRANCH  37  39
ATOM     38  C   CYS A   1      12.546  21.667  29.086  0.00  0.00    +0.239 C 
ATOM     39  N   LEU A   2      13.499  22.316  29.757  0.00  0.00    -0.297 N 
ATOM     40  H   LEU A   2      13.654  23.324  29.555  0.00  0.00    +0.150 HD
ATOM     41  O   CYS A   1      12.326  20.461  29.190  0.00  0.00    -0.274 OA
BRANCH  38  42
ATOM     42  CA  CYS A   1      11.711  22.512  28.154  0.00  0.00    +0.156 C 
BRANCH  42  43
ATOM     43  CB  CYS A   1      10.333  22.730  28.768  0.00  0.00    +0.095 C 
ATOM     44  SG  CYS A   1       9.350  23.967  27.880  0.00  0.00    -0.080 S 
ENDBRANCH  42  43
BRANCH  42  45
ATOM     45  N   CYS A   1      11.582  21.981  26.809  0.00  0.00    -0.237 NA
ATOM     46  H   CYS A   1      10.957  21.168  26.635  0.00  0.00    +0.142 HD
ENDBRANCH  42  45
ENDBRANCH  38  42
ENDBRANCH  37  39
BRANCH  37  47
ATOM     47  CB  LEU A   2      15.803  21.703  30.349  0.00  0.00    +0.029 C 
BRANCH  47  48
ATOM     48  CG  LEU A   2      16.757  20.870  31.209  0.00  0.00    +0.002 C 
ATOM     49  CD2 LEU A   2      16.424  19.397  31.176  0.00  0.00    +0.000 C 
ATOM     50  CD1 LEU A   2      18.156  21.037  30.708  0.00  0.00    +0.000 C 
ENDBRANCH  47  48
ENDBRANCH  37  47
ENDBRANCH  33  37
ENDBRANCH  32  34
BRANCH  32  51
ATOM     51  CB  TRP A   3      11.368  22.007  34.601  0.00  0.00    +0.057 C 
BRANCH  51  52
ATOM     52  CG  TRP A   3      10.291  22.568  33.724  0.00  0.00    -0.002 A 
ATOM     53  CD2 TRP A   3       9.717  23.878  33.792  0.00  0.00    +0.013 A 
ATOM     54  CE3 TRP A   3       9.906  24.983  34.624  0.00  0.00    +0.001 A 
ATOM     55  CZ3 TRP A   3       9.139  26.117  34.412  0.00  0.00    +0.000 A 
ATOM     56  CH2 TRP A   3       8.190  26.170  33.388  0.00  0.00    +0.001 A 
ATOM     57  CZ2 TRP A   3       7.986  25.107  32.552  0.00  0.00    +0.017 A 
ATOM     58  CE2 TRP A   3       8.758  23.969  32.764  0.00  0.00    +0.056 A 
ATOM     59  NE1 TRP A   3       8.751  22.772  32.110  0.00  0.00    -0.352 N 
ATOM     60  HE1 TRP A   3       8.137  22.526  31.307  0.00  0.00    +0.166 HD
ATOM     61  CD1 TRP A   3       9.684  21.944  32.681  0.00  0.00    +0.068 A 
ENDBRANCH  51  52
ENDBRANCH  32  51
ENDBRANCH   1  32
TORSDOF 23
REMARK  Name = ../refined-set-2016/1np0/1np0_pocket.pdb
REMARK  156 active torsions:
REMARK  status: ('A' for Active; 'I' for Inactive)
REMARK    1  A    between atoms: _1  and  _3
REMARK    2  A    between atoms: _3  and  _4
REMARK    3  A    between atoms: _3  and  _6
REMARK    4  A    between atoms: _6  and  _7
REMARK    5  A    between atoms: _10  and  _12
REMARK    6  A    between atoms: _12  and  _13
REMARK    7  A    between atoms: _12  and  _15
REMARK    8  A    between atoms: _15  and  _16
REMARK    9  A    between atoms: _19  and  _21
REMARK   10  A    between atoms: _21  and  _22
REMARK   11  A    between atoms: _21  and  _24
REMARK   12  A    between atoms: _24  and  _25
REMARK   13  A    between atoms: _25  and  _26
REMARK   14  A    between atoms: _26  and  _27
REMARK   15  A    between atoms: _36  and  _38
REMARK   16  A    between atoms: _38  and  _39
REMARK   17  A    between atoms: _38  and  _41
REMARK   18  A    between atoms: _41  and  _42
REMARK   19  A    between atoms: _47  and  _49
REMARK   20  A    between atoms: _49  and  _50
REMARK   21  A    between atoms: _49  and  _52
REMARK   22  A    between atoms: _52  and  _53
REMARK   23  A    between atoms: _58  and  _60
REMARK   24  A    between atoms: _60  and  _61
REMARK   25  A    between atoms: _60  and  _63
REMARK   26  A    between atoms: _63  and  _64
REMARK   27  A    between atoms: _67  and  _69
REMARK   28  A    between atoms: _69  and  _70
REMARK   29  A    between atoms: _69  and  _72
REMARK   30  A    between atoms: _72  and  _73
REMARK   31  A    between atoms: _76  and  _78
REMARK   32  A    between atoms: _78  and  _79
REMARK   33  A    between atoms: _78  and  _81
REMARK   34  A    between atoms: _81  and  _82
REMARK   35  A    between atoms: _82  and  _83
REMARK   36  A    between atoms: _88  and  _90
REMARK   37  A    between atoms: _90  and  _91
REMARK   38  A    between atoms: _90  and  _93
REMARK   39  A    between atoms: _93  and  _94
REMARK   40  A    between atoms: _94  and  _95
REMARK   41  A    between atoms: _98  and  _100
REMARK   42  A    between atoms: _100  and  _101
REMARK   43  A    between atoms: _100  and  _103
REMARK   44  A    between atoms: _103  and  _104
REMARK   45  A    between atoms: _107  and  _109
REMARK   46  A    between atoms: _109  and  _110
REMARK   47  A    between atoms: _109  and  _112
REMARK   48  A    between atoms: _112  and  _113
REMARK   49  A    between atoms: _118  and  _120
REMARK   50  A    between atoms: _120  and  _121
REMARK   51  A    between atoms: _120  and  _123
REMARK   52  A    between atoms: _123  and  _124
REMARK   53  A    between atoms: _129  and  _131
REMARK   54  A    between atoms: _131  and  _132
REMARK   55  A    between atoms: _134  and  _136
REMARK   56  A    between atoms: _136  and  _137
REMARK   57  A    between atoms: _139  and  _141
REMARK   58  A    between atoms: _141  and  _142
REMARK   59  A    between atoms: _141  and  _144
REMARK   60  A    between atoms: _144  and  _145
REMARK   61  A    between atoms: _148  and  _150
REMARK   62  A    between atoms: _150  and  _151
REMARK   63  A    between atoms: _150  and  _153
REMARK   64  A    between atoms: _153  and  _154
REMARK   65  A    between atoms: _154  and  _155
REMARK   66  A    between atoms: _158  and  _160
REMARK   67  A    between atoms: _160  and  _161
REMARK   68  A    between atoms: _160  and  _163
REMARK   69  A    between atoms: _163  and  _164
REMARK   70  A    between atoms: _174  and  _176
REMARK   71  A    between atoms: _176  and  _177
REMARK   72  A    between atoms: _176  and  _179
REMARK   73  A    between atoms: _179  and  _180
REMARK   74  A    between atoms: _180  and  _181
REMARK   75  A    between atoms: _186  and  _188
REMARK   76  A    between atoms: _188  and  _189
REMARK   77  A    between atoms: _188  and  _191
REMARK   78  A    between atoms: _191  and  _192
REMARK   79  A    between atoms: _192  and  _193
REMARK   80  A    between atoms: _196  and  _198
REMARK   81  A    between atoms: _198  and  _199
REMARK   82  A    between atoms: _198  and  _201
REMARK   83  A    between atoms: _201  and  _202
REMARK   84  A    between atoms: _202  and  _203
REMARK   85  A    between atoms: _206  and  _208
REMARK   86  A    between atoms: _208  and  _209
REMARK   87  A    between atoms: _208  and  _211
REMARK   88  A    between atoms: _214  and  _216
REMARK   89  A    between atoms: _216  and  _217
REMARK   90  A    between atoms: _216  and  _219
REMARK   91  A    between atoms: _219  and  _220
REMARK   92  A    between atoms: _230  and  _232
REMARK   93  A    between atoms: _232  and  _233
REMARK   94  A    between atoms: _232  and  _235
REMARK   95  A    between atoms: _235  and  _236
REMARK   96  A    between atoms: _236  and  _237
REMARK   97  A    between atoms: _237  and  _238
REMARK   98  A    between atoms: _238  and  _239
REMARK   99  A    between atoms: _243  and  _245
REMARK  100  A    between atoms: _245  and  _246
REMARK  101  A    between atoms: _245  and  _248
REMARK  102  A    between atoms: _248  and  _249
REMARK  103  A    between atoms: _252  and  _254
REMARK  104  A    between atoms: _254  and  _255
REMARK  105  A    between atoms: _254  and  _257
REMARK  106  A    between atoms: _257  and  _258
REMARK  107  A    between atoms: _260  and  _262
REMARK  108  A    between atoms: _262  and  _263
REMARK  109  A    between atoms: _262  and  _265
REMARK  110  A    between atoms: _265  and  _266
REMARK  111  A    between atoms: _271  and  _272
REMARK  112  A    between atoms: _274  and  _276
REMARK  113  A    between atoms: _276  and  _277
REMARK  114  A    between atoms: _276  and  _279
REMARK  115  A    between atoms: _279  and  _280
REMARK  116  A    between atoms: _283  and  _285
REMARK  117  A    between atoms: _285  and  _286
REMARK  118  A    between atoms: _285  and  _288
REMARK  119  A    between atoms: _288  and  _289
REMARK  120  A    between atoms: _292  and  _294
REMARK  121  A    between atoms: _294  and  _295
REMARK  122  A    between atoms: _294  and  _297
REMARK  123  A    between atoms: _297  and  _298
REMARK  124  A    between atoms: _301  and  _303
REMARK  125  A    between atoms: _303  and  _304
REMARK  126  A    between atoms: _303  and  _306
REMARK  127  A    between atoms: _308  and  _310
REMARK  128  A    between atoms: _310  and  _311
REMARK  129  A    between atoms: _310  and  _313
REMARK  130  A    between atoms: _313  and  _314
REMARK  131  A    between atoms: _317  and  _319
REMARK  132  A    between atoms: _319  and  _320
REMARK  133  A    between atoms: _319  and  _322
REMARK  134  A    between atoms: _322  and  _323
REMARK  135  A    between atoms: _333  and  _335
REMARK  136  A    between atoms: _335  and  _336
REMARK  137  A    between atoms: _338  and  _340
REMARK  138  A    between atoms: _340  and  _341
REMARK  139  A    between atoms: _340  and  _343
REMARK  140  A    between atoms: _343  and  _344
REMARK  141  A    between atoms: _344  and  _345
REMARK  142  A    between atoms: _348  and  _350
REMARK  143  A    between atoms: _350  and  _351
REMARK  144  A    between atoms: _350  and  _353
REMARK  145  A    between atoms: _353  and  _354
REMARK  146  A    between atoms: _359  and  _360
REMARK  147  A    between atoms: _362  and  _364
REMARK  148  A    between atoms: _364  and  _365
REMARK  149  A    between atoms: _364  and  _367
REMARK  150  A    between atoms: _367  and  _368
REMARK  151  A    between atoms: _373  and  _374
REMARK  152  A    between atoms: _376  and  _378
REMARK  153  A    between atoms: _378  and  _379
REMARK  154  A    between atoms: _378  and  _381
REMARK  155  A    between atoms: _381  and  _382
REMARK  156  A    between atoms: _387  and  _388
REMARK                            x       y       z     vdW  Elec       q    Type
REMARK                         _______ _______ _______ _____ _____    ______ ____
ROOT
ATOM      1  CG  TYR A   1      10.642  13.124  36.378  0.00  0.00    -0.020 A 
ATOM      2  CD2 TYR A   1       9.581  13.418  37.226  0.00  0.00    -0.001 A 
ATOM      3  CE2 TYR A   1       9.335  14.711  37.649  0.00  0.00    +0.036 A 
ATOM      4  CZ  TYR A   1      10.169  15.727  37.237  0.00  0.00    +0.134 A 
ATOM      5  CE1 TYR A   1      11.242  15.457  36.408  0.00  0.00    +0.036 A 
ATOM      6  CD1 TYR A   1      11.470  14.166  35.990  0.00  0.00    -0.001 A 
ENDROOT
BRANCH   4   7
ATOM      7  OH  TYR A   1       9.939  17.015  37.668  0.00  0.00    -0.506 OA
ATOM      8  HH  TYR A   1      10.624  17.618  37.283  0.00  0.00    +0.292 HD
ENDBRANCH   4   7
BRANCH   1   9
ATOM      9  CB  TYR A   1      10.917  11.707  35.925  0.00  0.00    +0.051 C 
BRANCH   9  10
ATOM     10  CA  TYR A   1      12.225  11.126  36.488  0.00  0.00    +0.137 C 
BRANCH  10  11
ATOM     11  N   TYR A   1      12.470   9.791  35.955  0.00  0.00    -0.239 NA
ATOM     12  H   TYR A   1      11.705   9.301  35.448  0.00  0.00    +0.142 HD
ENDBRANCH  10  11
BRANCH  10  13
ATOM     13  C   TYR A   1      12.141  11.117  38.006  0.00  0.00    +0.224 C 
ATOM     14  O   TYR A   1      11.619  10.178  38.600  0.00  0.00    -0.287 OA
ENDBRANCH  10  13
ENDBRANCH   9  10
ENDBRANCH   1   9
TORSDOF 5
REMARK  Name = ../refined-set-2016/1np0/1np0_pocket.pdb
REMARK  156 active torsions:
REMARK  status: ('A' for Active; 'I' for Inactive)
REMARK    1  A    between atoms: _1  and  _3
REMARK    2  A    between atoms: _3  and  _4
REMARK    3  A    between atoms: _3  and  _6
REMARK    4  A    between atoms: _6  and  _7
REMARK    5  A    between atoms: _10  and  _12
REMARK    6  A    between atoms: _12  and  _13
REMARK    7  A    between atoms: _12  and  _15
REMARK    8  A    between atoms: _15  and  _16
REMARK    9  A    between atoms: _19  and  _21
REMARK   10  A    between atoms: _21  and  _22
REMARK   11  A    between atoms: _21  and  _24
REMARK   12  A    between atoms: _24  and  _25
REMARK   13  A    between atoms: _25  and  _26
REMARK   14  A    between atoms: _26  and  _27
REMARK   15  A    between atoms: _36  and  _38
REMARK   16  A    between atoms: _38  and  _39
REMARK   17  A    between atoms: _38  and  _41
REMARK   18  A    between atoms: _41  and  _42
REMARK   19  A    between atoms: _47  and  _49
REMARK   20  A    between atoms: _49  and  _50
REMARK   21  A    between atoms: _49  and  _52
REMARK   22  A    between atoms: _52  and  _53
REMARK   23  A    between atoms: _58  and  _60
REMARK   24  A    between atoms: _60  and  _61
REMARK   25  A    between atoms: _60  and  _63
REMARK   26  A    between atoms: _63  and  _64
REMARK   27  A    between atoms: _67  and  _69
REMARK   28  A    between atoms: _69  and  _70
REMARK   29  A    between atoms: _69  and  _72
REMARK   30  A    between atoms: _72  and  _73
REMARK   31  A    between atoms: _76  and  _78
REMARK   32  A    between atoms: _78  and  _79
REMARK   33  A    between atoms: _78  and  _81
REMARK   34  A    between atoms: _81  and  _82
REMARK   35  A    between atoms: _82  and  _83
REMARK   36  A    between atoms: _88  and  _90
REMARK   37  A    between atoms: _90  and  _91
REMARK   38  A    between atoms: _90  and  _93
REMARK   39  A    between atoms: _93  and  _94
REMARK   40  A    between atoms: _94  and  _95
REMARK   41  A    between atoms: _98  and  _100
REMARK   42  A    between atoms: _100  and  _101
REMARK   43  A    between atoms: _100  and  _103
REMARK   44  A    between atoms: _103  and  _104
REMARK   45  A    between atoms: _107  and  _109
REMARK   46  A    between atoms: _109  and  _110
REMARK   47  A    between atoms: _109  and  _112
REMARK   48  A    between atoms: _112  and  _113
REMARK   49  A    between atoms: _118  and  _120
REMARK   50  A    between atoms: _120  and  _121
REMARK   51  A    between atoms: _120  and  _123
REMARK   52  A    between atoms: _123  and  _124
REMARK   53  A    between atoms: _129  and  _131
REMARK   54  A    between atoms: _131  and  _132
REMARK   55  A    between atoms: _134  and  _136
REMARK   56  A    between atoms: _136  and  _137
REMARK   57  A    between atoms: _139  and  _141
REMARK   58  A    between atoms: _141  and  _142
REMARK   59  A    between atoms: _141  and  _144
REMARK   60  A    between atoms: _144  and  _145
REMARK   61  A    between atoms: _148  and  _150
REMARK   62  A    between atoms: _150  and  _151
REMARK   63  A    between atoms: _150  and  _153
REMARK   64  A    between atoms: _153  and  _154
REMARK   65  A    between atoms: _154  and  _155
REMARK   66  A    between atoms: _158  and  _160
REMARK   67  A    between atoms: _160  and  _161
REMARK   68  A    between atoms: _160  and  _163
REMARK   69  A    between atoms: _163  and  _164
REMARK   70  A    between atoms: _174  and  _176
REMARK   71  A    between atoms: _176  and  _177
REMARK   72  A    between atoms: _176  and  _179
REMARK   73  A    between atoms: _179  and  _180
REMARK   74  A    between atoms: _180  and  _181
REMARK   75  A    between atoms: _186  and  _188
REMARK   76  A    between atoms: _188  and  _189
REMARK   77  A    between atoms: _188  and  _191
REMARK   78  A    between atoms: _191  and  _192
REMARK   79  A    between atoms: _192  and  _193
REMARK   80  A    between atoms: _196  and  _198
REMARK   81  A    between atoms: _198  and  _199
REMARK   82  A    between atoms: _198  and  _201
REMARK   83  A    between atoms: _201  and  _202
REMARK   84  A    between atoms: _202  and  _203
REMARK   85  A    between atoms: _206  and  _208
REMARK   86  A    between atoms: _208  and  _209
REMARK   87  A    between atoms: _208  and  _211
REMARK   88  A    between atoms: _214  and  _216
REMARK   89  A    between atoms: _216  and  _217
REMARK   90  A    between atoms: _216  and  _219
REMARK   91  A    between atoms: _219  and  _220
REMARK   92  A    between atoms: _230  and  _232
REMARK   93  A    between atoms: _232  and  _233
REMARK   94  A    between atoms: _232  and  _235
REMARK   95  A    between atoms: _235  and  _236
REMARK   96  A    between atoms: _236  and  _237
REMARK   97  A    between atoms: _237  and  _238
REMARK   98  A    between atoms: _238  and  _239
REMARK   99  A    between atoms: _243  and  _245
REMARK  100  A    between atoms: _245  and  _246
REMARK  101  A    between atoms: _245  and  _248
REMARK  102  A    between atoms: _248  and  _249
REMARK  103  A    between atoms: _252  and  _254
REMARK  104  A    between atoms: _254  and  _255
REMARK  105  A    between atoms: _254  and  _257
REMARK  106  A    between atoms: _257  and  _258
REMARK  107  A    between atoms: _260  and  _262
REMARK  108  A    between atoms: _262  and  _263
REMARK  109  A    between atoms: _262  and  _265
REMARK  110  A    between atoms: _265  and  _266
REMARK  111  A    between atoms: _271  and  _272
REMARK  112  A    between atoms: _274  and  _276
REMARK  113  A    between atoms: _276  and  _277
REMARK  114  A    between atoms: _276  and  _279
REMARK  115  A    between atoms: _279  and  _280
REMARK  116  A    between atoms: _283  and  _285
REMARK  117  A    between atoms: _285  and  _286
REMARK  118  A    between atoms: _285  and  _288
REMARK  119  A    between atoms: _288  and  _289
REMARK  120  A    between atoms: _292  and  _294
REMARK  121  A    between atoms: _294  and  _295
REMARK  122  A    between atoms: _294  and  _297
REMARK  123  A    between atoms: _297  and  _298
REMARK  124  A    between atoms: _301  and  _303
REMARK  125  A    between atoms: _303  and  _304
REMARK  126  A    between atoms: _303  and  _306
REMARK  127  A    between atoms: _308  and  _310
REMARK  128  A    between atoms: _310  and  _311
REMARK  129  A    between atoms: _310  and  _313
REMARK  130  A    between atoms: _313  and  _314
REMARK  131  A    between atoms: _317  and  _319
REMARK  132  A    between atoms: _319  and  _320
REMARK  133  A    between atoms: _319  and  _322
REMARK  134  A    between atoms: _322  and  _323
REMARK  135  A    between atoms: _333  and  _335
REMARK  136  A    between atoms: _335  and  _336
REMARK  137  A    between atoms: _338  and  _340
REMARK  138  A    between atoms: _340  and  _341
REMARK  139  A    between atoms: _340  and  _343
REMARK  140  A    between atoms: _343  and  _344
REMARK  141  A    between atoms: _344  and  _345
REMARK  142  A    between atoms: _348  and  _350
REMARK  143  A    between atoms: _350  and  _351
REMARK  144  A    between atoms: _350  and  _353
REMARK  145  A    between atoms: _353  and  _354
REMARK  146  A    between atoms: _359  and  _360
REMARK  147  A    between atoms: _362  and  _364
REMARK  148  A    between atoms: _364  and  _365
REMARK  149  A    between atoms: _364  and  _367
REMARK  150  A    between atoms: _367  and  _368
REMARK  151  A    between atoms: _373  and  _374
REMARK  152  A    between atoms: _376  and  _378
REMARK  153  A    between atoms: _378  and  _379
REMARK  154  A    between atoms: _378  and  _381
REMARK  155  A    between atoms: _381  and  _382
REMARK  156  A    between atoms: _387  and  _388
REMARK                            x       y       z     vdW  Elec       q    Type
REMARK                         _______ _______ _______ _____ _____    ______ ____
ROOT
ATOM      1  CG  TYR A   1      13.594  18.671  45.273  0.00  0.00    -0.020 A 
ATOM      2  CD2 TYR A   1      13.049  19.661  46.078  0.00  0.00    -0.001 A 
ATOM      3  CE2 TYR A   1      11.816  20.176  45.814  0.00  0.00    +0.036 A 
ATOM      4  CZ  TYR A   1      11.102  19.721  44.727  0.00  0.00    +0.134 A 
ATOM      5  CE1 TYR A   1      11.627  18.762  43.900  0.00  0.00    +0.036 A 
ATOM      6  CD1 TYR A   1      12.864  18.251  44.170  0.00  0.00    -0.001 A 
ENDROOT
BRANCH   4   7
ATOM      7  OH  TYR A   1       9.854  20.248  44.463  0.00  0.00    -0.506 OA
ATOM      8  HH  TYR A   1       9.479  19.817  43.654  0.00  0.00    +0.292 HD
ENDBRANCH   4   7
BRANCH   1   9
ATOM      9  CB  TYR A   1      14.985  18.139  45.529  0.00  0.00    +0.051 C 
BRANCH   9  10
ATOM     10  CA  TYR A   1      15.978  18.384  44.371  0.00  0.00    +0.137 C 
BRANCH  10  11
ATOM     11  N   TYR A   1      17.191  17.617  44.578  0.00  0.00    -0.239 NA
ATOM     12  H   TYR A   1      18.059  18.116  44.860  0.00  0.00    +0.142 HD
ENDBRANCH  10  11
BRANCH  10  13
ATOM     13  C   TYR A   1      16.437  19.837  44.279  0.00  0.00    +0.224 C 
ATOM     14  O   TYR A   1      17.643  20.097  44.238  0.00  0.00    -0.287 OA
ENDBRANCH  10  13
ENDBRANCH   9  10
ENDBRANCH   1   9
TORSDOF 5
REMARK  Name = ../refined-set-2016/1np0/1np0_pocket.pdb
REMARK  156 active torsions:
REMARK  status: ('A' for Active; 'I' for Inactive)
REMARK    1  A    between atoms: _1  and  _3
REMARK    2  A    between atoms: _3  and  _4
REMARK    3  A    between atoms: _3  and  _6
REMARK    4  A    between atoms: _6  and  _7
REMARK    5  A    between atoms: _10  and  _12
REMARK    6  A    between atoms: _12  and  _13
REMARK    7  A    between atoms: _12  and  _15
REMARK    8  A    between atoms: _15  and  _16
REMARK    9  A    between atoms: _19  and  _21
REMARK   10  A    between atoms: _21  and  _22
REMARK   11  A    between atoms: _21  and  _24
REMARK   12  A    between atoms: _24  and  _25
REMARK   13  A    between atoms: _25  and  _26
REMARK   14  A    between atoms: _26  and  _27
REMARK   15  A    between atoms: _36  and  _38
REMARK   16  A    between atoms: _38  and  _39
REMARK   17  A    between atoms: _38  and  _41
REMARK   18  A    between atoms: _41  and  _42
REMARK   19  A    between atoms: _47  and  _49
REMARK   20  A    between atoms: _49  and  _50
REMARK   21  A    between atoms: _49  and  _52
REMARK   22  A    between atoms: _52  and  _53
REMARK   23  A    between atoms: _58  and  _60
REMARK   24  A    between atoms: _60  and  _61
REMARK   25  A    between atoms: _60  and  _63
REMARK   26  A    between atoms: _63  and  _64
REMARK   27  A    between atoms: _67  and  _69
REMARK   28  A    between atoms: _69  and  _70
REMARK   29  A    between atoms: _69  and  _72
REMARK   30  A    between atoms: _72  and  _73
REMARK   31  A    between atoms: _76  and  _78
REMARK   32  A    between atoms: _78  and  _79
REMARK   33  A    between atoms: _78  and  _81
REMARK   34  A    between atoms: _81  and  _82
REMARK   35  A    between atoms: _82  and  _83
REMARK   36  A    between atoms: _88  and  _90
REMARK   37  A    between atoms: _90  and  _91
REMARK   38  A    between atoms: _90  and  _93
REMARK   39  A    between atoms: _93  and  _94
REMARK   40  A    between atoms: _94  and  _95
REMARK   41  A    between atoms: _98  and  _100
REMARK   42  A    between atoms: _100  and  _101
REMARK   43  A    between atoms: _100  and  _103
REMARK   44  A    between atoms: _103  and  _104
REMARK   45  A    between atoms: _107  and  _109
REMARK   46  A    between atoms: _109  and  _110
REMARK   47  A    between atoms: _109  and  _112
REMARK   48  A    between atoms: _112  and  _113
REMARK   49  A    between atoms: _118  and  _120
REMARK   50  A    between atoms: _120  and  _121
REMARK   51  A    between atoms: _120  and  _123
REMARK   52  A    between atoms: _123  and  _124
REMARK   53  A    between atoms: _129  and  _131
REMARK   54  A    between atoms: _131  and  _132
REMARK   55  A    between atoms: _134  and  _136
REMARK   56  A    between atoms: _136  and  _137
REMARK   57  A    between atoms: _139  and  _141
REMARK   58  A    between atoms: _141  and  _142
REMARK   59  A    between atoms: _141  and  _144
REMARK   60  A    between atoms: _144  and  _145
REMARK   61  A    between atoms: _148  and  _150
REMARK   62  A    between atoms: _150  and  _151
REMARK   63  A    between atoms: _150  and  _153
REMARK   64  A    between atoms: _153  and  _154
REMARK   65  A    between atoms: _154  and  _155
REMARK   66  A    between atoms: _158  and  _160
REMARK   67  A    between atoms: _160  and  _161
REMARK   68  A    between atoms: _160  and  _163
REMARK   69  A    between atoms: _163  and  _164
REMARK   70  A    between atoms: _174  and  _176
REMARK   71  A    between atoms: _176  and  _177
REMARK   72  A    between atoms: _176  and  _179
REMARK   73  A    between atoms: _179  and  _180
REMARK   74  A    between atoms: _180  and  _181
REMARK   75  A    between atoms: _186  and  _188
REMARK   76  A    between atoms: _188  and  _189
REMARK   77  A    between atoms: _188  and  _191
REMARK   78  A    between atoms: _191  and  _192
REMARK   79  A    between atoms: _192  and  _193
REMARK   80  A    between atoms: _196  and  _198
REMARK   81  A    between atoms: _198  and  _199
REMARK   82  A    between atoms: _198  and  _201
REMARK   83  A    between atoms: _201  and  _202
REMARK   84  A    between atoms: _202  and  _203
REMARK   85  A    between atoms: _206  and  _208
REMARK   86  A    between atoms: _208  and  _209
REMARK   87  A    between atoms: _208  and  _211
REMARK   88  A    between atoms: _214  and  _216
REMARK   89  A    between atoms: _216  and  _217
REMARK   90  A    between atoms: _216  and  _219
REMARK   91  A    between atoms: _219  and  _220
REMARK   92  A    between atoms: _230  and  _232
REMARK   93  A    between atoms: _232  and  _233
REMARK   94  A    between atoms: _232  and  _235
REMARK   95  A    between atoms: _235  and  _236
REMARK   96  A    between atoms: _236  and  _237
REMARK   97  A    between atoms: _237  and  _238
REMARK   98  A    between atoms: _238  and  _239
REMARK   99  A    between atoms: _243  and  _245
REMARK  100  A    between atoms: _245  and  _246
REMARK  101  A    between atoms: _245  and  _248
REMARK  102  A    between atoms: _248  and  _249
REMARK  103  A    between atoms: _252  and  _254
REMARK  104  A    between atoms: _254  and  _255
REMARK  105  A    between atoms: _254  and  _257
REMARK  106  A    between atoms: _257  and  _258
REMARK  107  A    between atoms: _260  and  _262
REMARK  108  A    between atoms: _262  and  _263
REMARK  109  A    between atoms: _262  and  _265
REMARK  110  A    between atoms: _265  and  _266
REMARK  111  A    between atoms: _271  and  _272
REMARK  112  A    between atoms: _274  and  _276
REMARK  113  A    between atoms: _276  and  _277
REMARK  114  A    between atoms: _276  and  _279
REMARK  115  A    between atoms: _279  and  _280
REMARK  116  A    between atoms: _283  and  _285
REMARK  117  A    between atoms: _285  and  _286
REMARK  118  A    between atoms: _285  and  _288
REMARK  119  A    between atoms: _288  and  _289
REMARK  120  A    between atoms: _292  and  _294
REMARK  121  A    between atoms: _294  and  _295
REMARK  122  A    between atoms: _294  and  _297
REMARK  123  A    between atoms: _297  and  _298
REMARK  124  A    between atoms: _301  and  _303
REMARK  125  A    between atoms: _303  and  _304
REMARK  126  A    between atoms: _303  and  _306
REMARK  127  A    between atoms: _308  and  _310
REMARK  128  A    between atoms: _310  and  _311
REMARK  129  A    between atoms: _310  and  _313
REMARK  130  A    between atoms: _313  and  _314
REMARK  131  A    between atoms: _317  and  _319
REMARK  132  A    between atoms: _319  and  _320
REMARK  133  A    between atoms: _319  and  _322
REMARK  134  A    between atoms: _322  and  _323
REMARK  135  A    between atoms: _333  and  _335
REMARK  136  A    between atoms: _335  and  _336
REMARK  137  A    between atoms: _338  and  _340
REMARK  138  A    between atoms: _340  and  _341
REMARK  139  A    between atoms: _340  and  _343
REMARK  140  A    between atoms: _343  and  _344
REMARK  141  A    between atoms: _344  and  _345
REMARK  142  A    between atoms: _348  and  _350
REMARK  143  A    between atoms: _350  and  _351
REMARK  144  A    between atoms: _350  and  _353
REMARK  145  A    between atoms: _353  and  _354
REMARK  146  A    between atoms: _359  and  _360
REMARK  147  A    between atoms: _362  and  _364
REMARK  148  A    between atoms: _364  and  _365
REMARK  149  A    between atoms: _364  and  _367
REMARK  150  A    between atoms: _367  and  _368
REMARK  151  A    between atoms: _373  and  _374
REMARK  152  A    between atoms: _376  and  _378
REMARK  153  A    between atoms: _378  and  _379
REMARK  154  A    between atoms: _378  and  _381
REMARK  155  A    between atoms: _381  and  _382
REMARK  156  A    between atoms: _387  and  _388
REMARK                            x       y       z     vdW  Elec       q    Type
REMARK                         _______ _______ _______ _____ _____    ______ ____
ROOT
ATOM      1  O   HOH     1       6.372  27.139  36.859  0.00  0.00    +0.000 OA
ENDROOT
TORSDOF 0
REMARK  Name = ../refined-set-2016/1np0/1np0_pocket.pdb
REMARK  156 active torsions:
REMARK  status: ('A' for Active; 'I' for Inactive)
REMARK    1  A    between atoms: _1  and  _3
REMARK    2  A    between atoms: _3  and  _4
REMARK    3  A    between atoms: _3  and  _6
REMARK    4  A    between atoms: _6  and  _7
REMARK    5  A    between atoms: _10  and  _12
REMARK    6  A    between atoms: _12  and  _13
REMARK    7  A    between atoms: _12  and  _15
REMARK    8  A    between atoms: _15  and  _16
REMARK    9  A    between atoms: _19  and  _21
REMARK   10  A    between atoms: _21  and  _22
REMARK   11  A    between atoms: _21  and  _24
REMARK   12  A    between atoms: _24  and  _25
REMARK   13  A    between atoms: _25  and  _26
REMARK   14  A    between atoms: _26  and  _27
REMARK   15  A    between atoms: _36  and  _38
REMARK   16  A    between atoms: _38  and  _39
REMARK   17  A    between atoms: _38  and  _41
REMARK   18  A    between atoms: _41  and  _42
REMARK   19  A    between atoms: _47  and  _49
REMARK   20  A    between atoms: _49  and  _50
REMARK   21  A    between atoms: _49  and  _52
REMARK   22  A    between atoms: _52  and  _53
REMARK   23  A    between atoms: _58  and  _60
REMARK   24  A    between atoms: _60  and  _61
REMARK   25  A    between atoms: _60  and  _63
REMARK   26  A    between atoms: _63  and  _64
REMARK   27  A    between atoms: _67  and  _69
REMARK   28  A    between atoms: _69  and  _70
REMARK   29  A    between atoms: _69  and  _72
REMARK   30  A    between atoms: _72  and  _73
REMARK   31  A    between atoms: _76  and  _78
REMARK   32  A    between atoms: _78  and  _79
REMARK   33  A    between atoms: _78  and  _81
REMARK   34  A    between atoms: _81  and  _82
REMARK   35  A    between atoms: _82  and  _83
REMARK   36  A    between atoms: _88  and  _90
REMARK   37  A    between atoms: _90  and  _91
REMARK   38  A    between atoms: _90  and  _93
REMARK   39  A    between atoms: _93  and  _94
REMARK   40  A    between atoms: _94  and  _95
REMARK   41  A    between atoms: _98  and  _100
REMARK   42  A    between atoms: _100  and  _101
REMARK   43  A    between atoms: _100  and  _103
REMARK   44  A    between atoms: _103  and  _104
REMARK   45  A    between atoms: _107  and  _109
REMARK   46  A    between atoms: _109  and  _110
REMARK   47  A    between atoms: _109  and  _112
REMARK   48  A    between atoms: _112  and  _113
REMARK   49  A    between atoms: _118  and  _120
REMARK   50  A    between atoms: _120  and  _121
REMARK   51  A    between atoms: _120  and  _123
REMARK   52  A    between atoms: _123  and  _124
REMARK   53  A    between atoms: _129  and  _131
REMARK   54  A    between atoms: _131  and  _132
REMARK   55  A    between atoms: _134  and  _136
REMARK   56  A    between atoms: _136  and  _137
REMARK   57  A    between atoms: _139  and  _141
REMARK   58  A    between atoms: _141  and  _142
REMARK   59  A    between atoms: _141  and  _144
REMARK   60  A    between atoms: _144  and  _145
REMARK   61  A    between atoms: _148  and  _150
REMARK   62  A    between atoms: _150  and  _151
REMARK   63  A    between atoms: _150  and  _153
REMARK   64  A    between atoms: _153  and  _154
REMARK   65  A    between atoms: _154  and  _155
REMARK   66  A    between atoms: _158  and  _160
REMARK   67  A    between atoms: _160  and  _161
REMARK   68  A    between atoms: _160  and  _163
REMARK   69  A    between atoms: _163  and  _164
REMARK   70  A    between atoms: _174  and  _176
REMARK   71  A    between atoms: _176  and  _177
REMARK   72  A    between atoms: _176  and  _179
REMARK   73  A    between atoms: _179  and  _180
REMARK   74  A    between atoms: _180  and  _181
REMARK   75  A    between atoms: _186  and  _188
REMARK   76  A    between atoms: _188  and  _189
REMARK   77  A    between atoms: _188  and  _191
REMARK   78  A    between atoms: _191  and  _192
REMARK   79  A    between atoms: _192  and  _193
REMARK   80  A    between atoms: _196  and  _198
REMARK   81  A    between atoms: _198  and  _199
REMARK   82  A    between atoms: _198  and  _201
REMARK   83  A    between atoms: _201  and  _202
REMARK   84  A    between atoms: _202  and  _203
REMARK   85  A    between atoms: _206  and  _208
REMARK   86  A    between atoms: _208  and  _209
REMARK   87  A    between atoms: _208  and  _211
REMARK   88  A    between atoms: _214  and  _216
REMARK   89  A    between atoms: _216  and  _217
REMARK   90  A    between atoms: _216  and  _219
REMARK   91  A    between atoms: _219  and  _220
REMARK   92  A    between atoms: _230  and  _232
REMARK   93  A    between atoms: _232  and  _233
REMARK   94  A    between atoms: _232  and  _235
REMARK   95  A    between atoms: _235  and  _236
REMARK   96  A    between atoms: _236  and  _237
REMARK   97  A    between atoms: _237  and  _238
REMARK   98  A    between atoms: _238  and  _239
REMARK   99  A    between atoms: _243  and  _245
REMARK  100  A    between atoms: _245  and  _246
REMARK  101  A    between atoms: _245  and  _248
REMARK  102  A    between atoms: _248  and  _249
REMARK  103  A    between atoms: _252  and  _254
REMARK  104  A    between atoms: _254  and  _255
REMARK  105  A    between atoms: _254  and  _257
REMARK  106  A    between atoms: _257  and  _258
REMARK  107  A    between atoms: _260  and  _262
REMARK  108  A    between atoms: _262  and  _263
REMARK  109  A    between atoms: _262  and  _265
REMARK  110  A    between atoms: _265  and  _266
REMARK  111  A    between atoms: _271  and  _272
REMARK  112  A    between atoms: _274  and  _276
REMARK  113  A    between atoms: _276  and  _277
REMARK  114  A    between atoms: _276  and  _279
REMARK  115  A    between atoms: _279  and  _280
REMARK  116  A    between atoms: _283  and  _285
REMARK  117  A    between atoms: _285  and  _286
REMARK  118  A    between atoms: _285  and  _288
REMARK  119  A    between atoms: _288  and  _289
REMARK  120  A    between atoms: _292  and  _294
REMARK  121  A    between atoms: _294  and  _295
REMARK  122  A    between atoms: _294  and  _297
REMARK  123  A    between atoms: _297  and  _298
REMARK  124  A    between atoms: _301  and  _303
REMARK  125  A    between atoms: _303  and  _304
REMARK  126  A    between atoms: _303  and  _306
REMARK  127  A    between atoms: _308  and  _310
REMARK  128  A    between atoms: _310  and  _311
REMARK  129  A    between atoms: _310  and  _313
REMARK  130  A    between atoms: _313  and  _314
REMARK  131  A    between atoms: _317  and  _319
REMARK  132  A    between atoms: _319  and  _320
REMARK  133  A    between atoms: _319  and  _322
REMARK  134  A    between atoms: _322  and  _323
REMARK  135  A    between atoms: _333  and  _335
REMARK  136  A    between atoms: _335  and  _336
REMARK  137  A    between atoms: _338  and  _340
REMARK  138  A    between atoms: _340  and  _341
REMARK  139  A    between atoms: _340  and  _343
REMARK  140  A    between atoms: _343  and  _344
REMARK  141  A    between atoms: _344  and  _345
REMARK  142  A    between atoms: _348  and  _350
REMARK  143  A    between atoms: _350  and  _351
REMARK  144  A    between atoms: _350  and  _353
REMARK  145  A    between atoms: _353  and  _354
REMARK  146  A    between atoms: _359  and  _360
REMARK  147  A    between atoms: _362  and  _364
REMARK  148  A    between atoms: _364  and  _365
REMARK  149  A    between atoms: _364  and  _367
REMARK  150  A    between atoms: _367  and  _368
REMARK  151  A    between atoms: _373  and  _374
REMARK  152  A    between atoms: _376  and  _378
REMARK  153  A    between atoms: _378  and  _379
REMARK  154  A    between atoms: _378  and  _381
REMARK  155  A    between atoms: _381  and  _382
REMARK  156  A    between atoms: _387  and  _388
REMARK                            x       y       z     vdW  Elec       q    Type
REMARK                         _______ _______ _______ _____ _____    ______ ____
ROOT
ATOM      1  O   HOH     1      14.323  18.828  36.501  0.00  0.00    +0.000 OA
ENDROOT
TORSDOF 0
REMARK  Name = ../refined-set-2016/1np0/1np0_pocket.pdb
REMARK  156 active torsions:
REMARK  status: ('A' for Active; 'I' for Inactive)
REMARK    1  A    between atoms: _1  and  _3
REMARK    2  A    between atoms: _3  and  _4
REMARK    3  A    between atoms: _3  and  _6
REMARK    4  A    between atoms: _6  and  _7
REMARK    5  A    between atoms: _10  and  _12
REMARK    6  A    between atoms: _12  and  _13
REMARK    7  A    between atoms: _12  and  _15
REMARK    8  A    between atoms: _15  and  _16
REMARK    9  A    between atoms: _19  and  _21
REMARK   10  A    between atoms: _21  and  _22
REMARK   11  A    between atoms: _21  and  _24
REMARK   12  A    between atoms: _24  and  _25
REMARK   13  A    between atoms: _25  and  _26
REMARK   14  A    between atoms: _26  and  _27
REMARK   15  A    between atoms: _36  and  _38
REMARK   16  A    between atoms: _38  and  _39
REMARK   17  A    between atoms: _38  and  _41
REMARK   18  A    between atoms: _41  and  _42
REMARK   19  A    between atoms: _47  and  _49
REMARK   20  A    between atoms: _49  and  _50
REMARK   21  A    between atoms: _49  and  _52
REMARK   22  A    between atoms: _52  and  _53
REMARK   23  A    between atoms: _58  and  _60
REMARK   24  A    between atoms: _60  and  _61
REMARK   25  A    between atoms: _60  and  _63
REMARK   26  A    between atoms: _63  and  _64
REMARK   27  A    between atoms: _67  and  _69
REMARK   28  A    between atoms: _69  and  _70
REMARK   29  A    between atoms: _69  and  _72
REMARK   30  A    between atoms: _72  and  _73
REMARK   31  A    between atoms: _76  and  _78
REMARK   32  A    between atoms: _78  and  _79
REMARK   33  A    between atoms: _78  and  _81
REMARK   34  A    between atoms: _81  and  _82
REMARK   35  A    between atoms: _82  and  _83
REMARK   36  A    between atoms: _88  and  _90
REMARK   37  A    between atoms: _90  and  _91
REMARK   38  A    between atoms: _90  and  _93
REMARK   39  A    between atoms: _93  and  _94
REMARK   40  A    between atoms: _94  and  _95
REMARK   41  A    between atoms: _98  and  _100
REMARK   42  A    between atoms: _100  and  _101
REMARK   43  A    between atoms: _100  and  _103
REMARK   44  A    between atoms: _103  and  _104
REMARK   45  A    between atoms: _107  and  _109
REMARK   46  A    between atoms: _109  and  _110
REMARK   47  A    between atoms: _109  and  _112
REMARK   48  A    between atoms: _112  and  _113
REMARK   49  A    between atoms: _118  and  _120
REMARK   50  A    between atoms: _120  and  _121
REMARK   51  A    between atoms: _120  and  _123
REMARK   52  A    between atoms: _123  and  _124
REMARK   53  A    between atoms: _129  and  _131
REMARK   54  A    between atoms: _131  and  _132
REMARK   55  A    between atoms: _134  and  _136
REMARK   56  A    between atoms: _136  and  _137
REMARK   57  A    between atoms: _139  and  _141
REMARK   58  A    between atoms: _141  and  _142
REMARK   59  A    between atoms: _141  and  _144
REMARK   60  A    between atoms: _144  and  _145
REMARK   61  A    between atoms: _148  and  _150
REMARK   62  A    between atoms: _150  and  _151
REMARK   63  A    between atoms: _150  and  _153
REMARK   64  A    between atoms: _153  and  _154
REMARK   65  A    between atoms: _154  and  _155
REMARK   66  A    between atoms: _158  and  _160
REMARK   67  A    between atoms: _160  and  _161
REMARK   68  A    between atoms: _160  and  _163
REMARK   69  A    between atoms: _163  and  _164
REMARK   70  A    between atoms: _174  and  _176
REMARK   71  A    between atoms: _176  and  _177
REMARK   72  A    between atoms: _176  and  _179
REMARK   73  A    between atoms: _179  and  _180
REMARK   74  A    between atoms: _180  and  _181
REMARK   75  A    between atoms: _186  and  _188
REMARK   76  A    between atoms: _188  and  _189
REMARK   77  A    between atoms: _188  and  _191
REMARK   78  A    between atoms: _191  and  _192
REMARK   79  A    between atoms: _192  and  _193
REMARK   80  A    between atoms: _196  and  _198
REMARK   81  A    between atoms: _198  and  _199
REMARK   82  A    between atoms: _198  and  _201
REMARK   83  A    between atoms: _201  and  _202
REMARK   84  A    between atoms: _202  and  _203
REMARK   85  A    between atoms: _206  and  _208
REMARK   86  A    between atoms: _208  and  _209
REMARK   87  A    between atoms: _208  and  _211
REMARK   88  A    between atoms: _214  and  _216
REMARK   89  A    between atoms: _216  and  _217
REMARK   90  A    between atoms: _216  and  _219
REMARK   91  A    between atoms: _219  and  _220
REMARK   92  A    between atoms: _230  and  _232
REMARK   93  A    between atoms: _232  and  _233
REMARK   94  A    between atoms: _232  and  _235
REMARK   95  A    between atoms: _235  and  _236
REMARK   96  A    between atoms: _236  and  _237
REMARK   97  A    between atoms: _237  and  _238
REMARK   98  A    between atoms: _238  and  _239
REMARK   99  A    between atoms: _243  and  _245
REMARK  100  A    between atoms: _245  and  _246
REMARK  101  A    between atoms: _245  and  _248
REMARK  102  A    between atoms: _248  and  _249
REMARK  103  A    between atoms: _252  and  _254
REMARK  104  A    between atoms: _254  and  _255
REMARK  105  A    between atoms: _254  and  _257
REMARK  106  A    between atoms: _257  and  _258
REMARK  107  A    between atoms: _260  and  _262
REMARK  108  A    between atoms: _262  and  _263
REMARK  109  A    between atoms: _262  and  _265
REMARK  110  A    between atoms: _265  and  _266
REMARK  111  A    between atoms: _271  and  _272
REMARK  112  A    between atoms: _274  and  _276
REMARK  113  A    between atoms: _276  and  _277
REMARK  114  A    between atoms: _276  and  _279
REMARK  115  A    between atoms: _279  and  _280
REMARK  116  A    between atoms: _283  and  _285
REMARK  117  A    between atoms: _285  and  _286
REMARK  118  A    between atoms: _285  and  _288
REMARK  119  A    between atoms: _288  and  _289
REMARK  120  A    between atoms: _292  and  _294
REMARK  121  A    between atoms: _294  and  _295
REMARK  122  A    between atoms: _294  and  _297
REMARK  123  A    between atoms: _297  and  _298
REMARK  124  A    between atoms: _301  and  _303
REMARK  125  A    between atoms: _303  and  _304
REMARK  126  A    between atoms: _303  and  _306
REMARK  127  A    between atoms: _308  and  _310
REMARK  128  A    between atoms: _310  and  _311
REMARK  129  A    between atoms: _310  and  _313
REMARK  130  A    between atoms: _313  and  _314
REMARK  131  A    between atoms: _317  and  _319
REMARK  132  A    between atoms: _319  and  _320
REMARK  133  A    between atoms: _319  and  _322
REMARK  134  A    between atoms: _322  and  _323
REMARK  135  A    between atoms: _333  and  _335
REMARK  136  A    between atoms: _335  and  _336
REMARK  137  A    between atoms: _338  and  _340
REMARK  138  A    between atoms: _340  and  _341
REMARK  139  A    between atoms: _340  and  _343
REMARK  140  A    between atoms: _343  and  _344
REMARK  141  A    between atoms: _344  and  _345
REMARK  142  A    between atoms: _348  and  _350
REMARK  143  A    between atoms: _350  and  _351
REMARK  144  A    between atoms: _350  and  _353
REMARK  145  A    between atoms: _353  and  _354
REMARK  146  A    between atoms: _359  and  _360
REMARK  147  A    between atoms: _362  and  _364
REMARK  148  A    between atoms: _364  and  _365
REMARK  149  A    between atoms: _364  and  _367
REMARK  150  A    between atoms: _367  and  _368
REMARK  151  A    between atoms: _373  and  _374
REMARK  152  A    between atoms: _376  and  _378
REMARK  153  A    between atoms: _378  and  _379
REMARK  154  A    between atoms: _378  and  _381
REMARK  155  A    between atoms: _381  and  _382
REMARK  156  A    between atoms: _387  and  _388
REMARK                            x       y       z     vdW  Elec       q    Type
REMARK                         _______ _______ _______ _____ _____    ______ ____
ROOT
ATOM      1  O   HOH     1       7.543  25.331  42.556  0.00  0.00    +0.000 OA
ENDROOT
TORSDOF 0
REMARK  Name = ../refined-set-2016/1np0/1np0_pocket.pdb
REMARK  156 active torsions:
REMARK  status: ('A' for Active; 'I' for Inactive)
REMARK    1  A    between atoms: _1  and  _3
REMARK    2  A    between atoms: _3  and  _4
REMARK    3  A    between atoms: _3  and  _6
REMARK    4  A    between atoms: _6  and  _7
REMARK    5  A    between atoms: _10  and  _12
REMARK    6  A    between atoms: _12  and  _13
REMARK    7  A    between atoms: _12  and  _15
REMARK    8  A    between atoms: _15  and  _16
REMARK    9  A    between atoms: _19  and  _21
REMARK   10  A    between atoms: _21  and  _22
REMARK   11  A    between atoms: _21  and  _24
REMARK   12  A    between atoms: _24  and  _25
REMARK   13  A    between atoms: _25  and  _26
REMARK   14  A    between atoms: _26  and  _27
REMARK   15  A    between atoms: _36  and  _38
REMARK   16  A    between atoms: _38  and  _39
REMARK   17  A    between atoms: _38  and  _41
REMARK   18  A    between atoms: _41  and  _42
REMARK   19  A    between atoms: _47  and  _49
REMARK   20  A    between atoms: _49  and  _50
REMARK   21  A    between atoms: _49  and  _52
REMARK   22  A    between atoms: _52  and  _53
REMARK   23  A    between atoms: _58  and  _60
REMARK   24  A    between atoms: _60  and  _61
REMARK   25  A    between atoms: _60  and  _63
REMARK   26  A    between atoms: _63  and  _64
REMARK   27  A    between atoms: _67  and  _69
REMARK   28  A    between atoms: _69  and  _70
REMARK   29  A    between atoms: _69  and  _72
REMARK   30  A    between atoms: _72  and  _73
REMARK   31  A    between atoms: _76  and  _78
REMARK   32  A    between atoms: _78  and  _79
REMARK   33  A    between atoms: _78  and  _81
REMARK   34  A    between atoms: _81  and  _82
REMARK   35  A    between atoms: _82  and  _83
REMARK   36  A    between atoms: _88  and  _90
REMARK   37  A    between atoms: _90  and  _91
REMARK   38  A    between atoms: _90  and  _93
REMARK   39  A    between atoms: _93  and  _94
REMARK   40  A    between atoms: _94  and  _95
REMARK   41  A    between atoms: _98  and  _100
REMARK   42  A    between atoms: _100  and  _101
REMARK   43  A    between atoms: _100  and  _103
REMARK   44  A    between atoms: _103  and  _104
REMARK   45  A    between atoms: _107  and  _109
REMARK   46  A    between atoms: _109  and  _110
REMARK   47  A    between atoms: _109  and  _112
REMARK   48  A    between atoms: _112  and  _113
REMARK   49  A    between atoms: _118  and  _120
REMARK   50  A    between atoms: _120  and  _121
REMARK   51  A    between atoms: _120  and  _123
REMARK   52  A    between atoms: _123  and  _124
REMARK   53  A    between atoms: _129  and  _131
REMARK   54  A    between atoms: _131  and  _132
REMARK   55  A    between atoms: _134  and  _136
REMARK   56  A    between atoms: _136  and  _137
REMARK   57  A    between atoms: _139  and  _141
REMARK   58  A    between atoms: _141  and  _142
REMARK   59  A    between atoms: _141  and  _144
REMARK   60  A    between atoms: _144  and  _145
REMARK   61  A    between atoms: _148  and  _150
REMARK   62  A    between atoms: _150  and  _151
REMARK   63  A    between atoms: _150  and  _153
REMARK   64  A    between atoms: _153  and  _154
REMARK   65  A    between atoms: _154  and  _155
REMARK   66  A    between atoms: _158  and  _160
REMARK   67  A    between atoms: _160  and  _161
REMARK   68  A    between atoms: _160  and  _163
REMARK   69  A    between atoms: _163  and  _164
REMARK   70  A    between atoms: _174  and  _176
REMARK   71  A    between atoms: _176  and  _177
REMARK   72  A    between atoms: _176  and  _179
REMARK   73  A    between atoms: _179  and  _180
REMARK   74  A    between atoms: _180  and  _181
REMARK   75  A    between atoms: _186  and  _188
REMARK   76  A    between atoms: _188  and  _189
REMARK   77  A    between atoms: _188  and  _191
REMARK   78  A    between atoms: _191  and  _192
REMARK   79  A    between atoms: _192  and  _193
REMARK   80  A    between atoms: _196  and  _198
REMARK   81  A    between atoms: _198  and  _199
REMARK   82  A    between atoms: _198  and  _201
REMARK   83  A    between atoms: _201  and  _202
REMARK   84  A    between atoms: _202  and  _203
REMARK   85  A    between atoms: _206  and  _208
REMARK   86  A    between atoms: _208  and  _209
REMARK   87  A    between atoms: _208  and  _211
REMARK   88  A    between atoms: _214  and  _216
REMARK   89  A    between atoms: _216  and  _217
REMARK   90  A    between atoms: _216  and  _219
REMARK   91  A    between atoms: _219  and  _220
REMARK   92  A    between atoms: _230  and  _232
REMARK   93  A    between atoms: _232  and  _233
REMARK   94  A    between atoms: _232  and  _235
REMARK   95  A    between atoms: _235  and  _236
REMARK   96  A    between atoms: _236  and  _237
REMARK   97  A    between atoms: _237  and  _238
REMARK   98  A    between atoms: _238  and  _239
REMARK   99  A    between atoms: _243  and  _245
REMARK  100  A    between atoms: _245  and  _246
REMARK  101  A    between atoms: _245  and  _248
REMARK  102  A    between atoms: _248  and  _249
REMARK  103  A    between atoms: _252  and  _254
REMARK  104  A    between atoms: _254  and  _255
REMARK  105  A    between atoms: _254  and  _257
REMARK  106  A    between atoms: _257  and  _258
REMARK  107  A    between atoms: _260  and  _262
REMARK  108  A    between atoms: _262  and  _263
REMARK  109  A    between atoms: _262  and  _265
REMARK  110  A    between atoms: _265  and  _266
REMARK  111  A    between atoms: _271  and  _272
REMARK  112  A    between atoms: _274  and  _276
REMARK  113  A    between atoms: _276  and  _277
REMARK  114  A    between atoms: _276  and  _279
REMARK  115  A    between atoms: _279  and  _280
REMARK  116  A    between atoms: _283  and  _285
REMARK  117  A    between atoms: _285  and  _286
REMARK  118  A    between atoms: _285  and  _288
REMARK  119  A    between atoms: _288  and  _289
REMARK  120  A    between atoms: _292  and  _294
REMARK  121  A    between atoms: _294  and  _295
REMARK  122  A    between atoms: _294  and  _297
REMARK  123  A    between atoms: _297  and  _298
REMARK  124  A    between atoms: _301  and  _303
REMARK  125  A    between atoms: _303  and  _304
REMARK  126  A    between atoms: _303  and  _306
REMARK  127  A    between atoms: _308  and  _310
REMARK  128  A    between atoms: _310  and  _311
REMARK  129  A    between atoms: _310  and  _313
REMARK  130  A    between atoms: _313  and  _314
REMARK  131  A    between atoms: _317  and  _319
REMARK  132  A    between atoms: _319  and  _320
REMARK  133  A    between atoms: _319  and  _322
REMARK  134  A    between atoms: _322  and  _323
REMARK  135  A    between atoms: _333  and  _335
REMARK  136  A    between atoms: _335  and  _336
REMARK  137  A    between atoms: _338  and  _340
REMARK  138  A    between atoms: _340  and  _341
REMARK  139  A    between atoms: _340  and  _343
REMARK  140  A    between atoms: _343  and  _344
REMARK  141  A    between atoms: _344  and  _345
REMARK  142  A    between atoms: _348  and  _350
REMARK  143  A    between atoms: _350  and  _351
REMARK  144  A    between atoms: _350  and  _353
REMARK  145  A    between atoms: _353  and  _354
REMARK  146  A    between atoms: _359  and  _360
REMARK  147  A    between atoms: _362  and  _364
REMARK  148  A    between atoms: _364  and  _365
REMARK  149  A    between atoms: _364  and  _367
REMARK  150  A    between atoms: _367  and  _368
REMARK  151  A    between atoms: _373  and  _374
REMARK  152  A    between atoms: _376  and  _378
REMARK  153  A    between atoms: _378  and  _379
REMARK  154  A    between atoms: _378  and  _381
REMARK  155  A    between atoms: _381  and  _382
REMARK  156  A    between atoms: _387  and  _388
REMARK                            x       y       z     vdW  Elec       q    Type
REMARK                         _______ _______ _______ _____ _____    ______ ____
ROOT
ATOM      1  O   HOH     1      15.058  16.450  35.090  0.00  0.00    +0.000 OA
ENDROOT
TORSDOF 0
REMARK  Name = ../refined-set-2016/1np0/1np0_pocket.pdb
REMARK  156 active torsions:
REMARK  status: ('A' for Active; 'I' for Inactive)
REMARK    1  A    between atoms: _1  and  _3
REMARK    2  A    between atoms: _3  and  _4
REMARK    3  A    between atoms: _3  and  _6
REMARK    4  A    between atoms: _6  and  _7
REMARK    5  A    between atoms: _10  and  _12
REMARK    6  A    between atoms: _12  and  _13
REMARK    7  A    between atoms: _12  and  _15
REMARK    8  A    between atoms: _15  and  _16
REMARK    9  A    between atoms: _19  and  _21
REMARK   10  A    between atoms: _21  and  _22
REMARK   11  A    between atoms: _21  and  _24
REMARK   12  A    between atoms: _24  and  _25
REMARK   13  A    between atoms: _25  and  _26
REMARK   14  A    between atoms: _26  and  _27
REMARK   15  A    between atoms: _36  and  _38
REMARK   16  A    between atoms: _38  and  _39
REMARK   17  A    between atoms: _38  and  _41
REMARK   18  A    between atoms: _41  and  _42
REMARK   19  A    between atoms: _47  and  _49
REMARK   20  A    between atoms: _49  and  _50
REMARK   21  A    between atoms: _49  and  _52
REMARK   22  A    between atoms: _52  and  _53
REMARK   23  A    between atoms: _58  and  _60
REMARK   24  A    between atoms: _60  and  _61
REMARK   25  A    between atoms: _60  and  _63
REMARK   26  A    between atoms: _63  and  _64
REMARK   27  A    between atoms: _67  and  _69
REMARK   28  A    between atoms: _69  and  _70
REMARK   29  A    between atoms: _69  and  _72
REMARK   30  A    between atoms: _72  and  _73
REMARK   31  A    between atoms: _76  and  _78
REMARK   32  A    between atoms: _78  and  _79
REMARK   33  A    between atoms: _78  and  _81
REMARK   34  A    between atoms: _81  and  _82
REMARK   35  A    between atoms: _82  and  _83
REMARK   36  A    between atoms: _88  and  _90
REMARK   37  A    between atoms: _90  and  _91
REMARK   38  A    between atoms: _90  and  _93
REMARK   39  A    between atoms: _93  and  _94
REMARK   40  A    between atoms: _94  and  _95
REMARK   41  A    between atoms: _98  and  _100
REMARK   42  A    between atoms: _100  and  _101
REMARK   43  A    between atoms: _100  and  _103
REMARK   44  A    between atoms: _103  and  _104
REMARK   45  A    between atoms: _107  and  _109
REMARK   46  A    between atoms: _109  and  _110
REMARK   47  A    between atoms: _109  and  _112
REMARK   48  A    between atoms: _112  and  _113
REMARK   49  A    between atoms: _118  and  _120
REMARK   50  A    between atoms: _120  and  _121
REMARK   51  A    between atoms: _120  and  _123
REMARK   52  A    between atoms: _123  and  _124
REMARK   53  A    between atoms: _129  and  _131
REMARK   54  A    between atoms: _131  and  _132
REMARK   55  A    between atoms: _134  and  _136
REMARK   56  A    between atoms: _136  and  _137
REMARK   57  A    between atoms: _139  and  _141
REMARK   58  A    between atoms: _141  and  _142
REMARK   59  A    between atoms: _141  and  _144
REMARK   60  A    between atoms: _144  and  _145
REMARK   61  A    between atoms: _148  and  _150
REMARK   62  A    between atoms: _150  and  _151
REMARK   63  A    between atoms: _150  and  _153
REMARK   64  A    between atoms: _153  and  _154
REMARK   65  A    between atoms: _154  and  _155
REMARK   66  A    between atoms: _158  and  _160
REMARK   67  A    between atoms: _160  and  _161
REMARK   68  A    between atoms: _160  and  _163
REMARK   69  A    between atoms: _163  and  _164
REMARK   70  A    between atoms: _174  and  _176
REMARK   71  A    between atoms: _176  and  _177
REMARK   72  A    between atoms: _176  and  _179
REMARK   73  A    between atoms: _179  and  _180
REMARK   74  A    between atoms: _180  and  _181
REMARK   75  A    between atoms: _186  and  _188
REMARK   76  A    between atoms: _188  and  _189
REMARK   77  A    between atoms: _188  and  _191
REMARK   78  A    between atoms: _191  and  _192
REMARK   79  A    between atoms: _192  and  _193
REMARK   80  A    between atoms: _196  and  _198
REMARK   81  A    between atoms: _198  and  _199
REMARK   82  A    between atoms: _198  and  _201
REMARK   83  A    between atoms: _201  and  _202
REMARK   84  A    between atoms: _202  and  _203
REMARK   85  A    between atoms: _206  and  _208
REMARK   86  A    between atoms: _208  and  _209
REMARK   87  A    between atoms: _208  and  _211
REMARK   88  A    between atoms: _214  and  _216
REMARK   89  A    between atoms: _216  and  _217
REMARK   90  A    between atoms: _216  and  _219
REMARK   91  A    between atoms: _219  and  _220
REMARK   92  A    between atoms: _230  and  _232
REMARK   93  A    between atoms: _232  and  _233
REMARK   94  A    between atoms: _232  and  _235
REMARK   95  A    between atoms: _235  and  _236
REMARK   96  A    between atoms: _236  and  _237
REMARK   97  A    between atoms: _237  and  _238
REMARK   98  A    between atoms: _238  and  _239
REMARK   99  A    between atoms: _243  and  _245
REMARK  100  A    between atoms: _245  and  _246
REMARK  101  A    between atoms: _245  and  _248
REMARK  102  A    between atoms: _248  and  _249
REMARK  103  A    between atoms: _252  and  _254
REMARK  104  A    between atoms: _254  and  _255
REMARK  105  A    between atoms: _254  and  _257
REMARK  106  A    between atoms: _257  and  _258
REMARK  107  A    between atoms: _260  and  _262
REMARK  108  A    between atoms: _262  and  _263
REMARK  109  A    between atoms: _262  and  _265
REMARK  110  A    between atoms: _265  and  _266
REMARK  111  A    between atoms: _271  and  _272
REMARK  112  A    between atoms: _274  and  _276
REMARK  113  A    between atoms: _276  and  _277
REMARK  114  A    between atoms: _276  and  _279
REMARK  115  A    between atoms: _279  and  _280
REMARK  116  A    between atoms: _283  and  _285
REMARK  117  A    between atoms: _285  and  _286
REMARK  118  A    between atoms: _285  and  _288
REMARK  119  A    between atoms: _288  and  _289
REMARK  120  A    between atoms: _292  and  _294
REMARK  121  A    between atoms: _294  and  _295
REMARK  122  A    between atoms: _294  and  _297
REMARK  123  A    between atoms: _297  and  _298
REMARK  124  A    between atoms: _301  and  _303
REMARK  125  A    between atoms: _303  and  _304
REMARK  126  A    between atoms: _303  and  _306
REMARK  127  A    between atoms: _308  and  _310
REMARK  128  A    between atoms: _310  and  _311
REMARK  129  A    between atoms: _310  and  _313
REMARK  130  A    between atoms: _313  and  _314
REMARK  131  A    between atoms: _317  and  _319
REMARK  132  A    between atoms: _319  and  _320
REMARK  133  A    between atoms: _319  and  _322
REMARK  134  A    between atoms: _322  and  _323
REMARK  135  A    between atoms: _333  and  _335
REMARK  136  A    between atoms: _335  and  _336
REMARK  137  A    between atoms: _338  and  _340
REMARK  138  A    between atoms: _340  and  _341
REMARK  139  A    between atoms: _340  and  _343
REMARK  140  A    between atoms: _343  and  _344
REMARK  141  A    between atoms: _344  and  _345
REMARK  142  A    between atoms: _348  and  _350
REMARK  143  A    between atoms: _350  and  _351
REMARK  144  A    between atoms: _350  and  _353
REMARK  145  A    between atoms: _353  and  _354
REMARK  146  A    between atoms: _359  and  _360
REMARK  147  A    between atoms: _362  and  _364
REMARK  148  A    between atoms: _364  and  _365
REMARK  149  A    between atoms: _364  and  _367
REMARK  150  A    between atoms: _367  and  _368
REMARK  151  A    between atoms: _373  and  _374
REMARK  152  A    between atoms: _376  and  _378
REMARK  153  A    between atoms: _378  and  _379
REMARK  154  A    between atoms: _378  and  _381
REMARK  155  A    between atoms: _381  and  _382
REMARK  156  A    between atoms: _387  and  _388
REMARK                            x       y       z     vdW  Elec       q    Type
REMARK                         _______ _______ _______ _____ _____    ______ ____
ROOT
ATOM      1  O   HOH     1       3.574  26.597  43.144  0.00  0.00    +0.000 OA
ENDROOT
TORSDOF 0
REMARK  Name = ../refined-set-2016/1np0/1np0_pocket.pdb
REMARK  156 active torsions:
REMARK  status: ('A' for Active; 'I' for Inactive)
REMARK    1  A    between atoms: _1  and  _3
REMARK    2  A    between atoms: _3  and  _4
REMARK    3  A    between atoms: _3  and  _6
REMARK    4  A    between atoms: _6  and  _7
REMARK    5  A    between atoms: _10  and  _12
REMARK    6  A    between atoms: _12  and  _13
REMARK    7  A    between atoms: _12  and  _15
REMARK    8  A    between atoms: _15  and  _16
REMARK    9  A    between atoms: _19  and  _21
REMARK   10  A    between atoms: _21  and  _22
REMARK   11  A    between atoms: _21  and  _24
REMARK   12  A    between atoms: _24  and  _25
REMARK   13  A    between atoms: _25  and  _26
REMARK   14  A    between atoms: _26  and  _27
REMARK   15  A    between atoms: _36  and  _38
REMARK   16  A    between atoms: _38  and  _39
REMARK   17  A    between atoms: _38  and  _41
REMARK   18  A    between atoms: _41  and  _42
REMARK   19  A    between atoms: _47  and  _49
REMARK   20  A    between atoms: _49  and  _50
REMARK   21  A    between atoms: _49  and  _52
REMARK   22  A    between atoms: _52  and  _53
REMARK   23  A    between atoms: _58  and  _60
REMARK   24  A    between atoms: _60  and  _61
REMARK   25  A    between atoms: _60  and  _63
REMARK   26  A    between atoms: _63  and  _64
REMARK   27  A    between atoms: _67  and  _69
REMARK   28  A    between atoms: _69  and  _70
REMARK   29  A    between atoms: _69  and  _72
REMARK   30  A    between atoms: _72  and  _73
REMARK   31  A    between atoms: _76  and  _78
REMARK   32  A    between atoms: _78  and  _79
REMARK   33  A    between atoms: _78  and  _81
REMARK   34  A    between atoms: _81  and  _82
REMARK   35  A    between atoms: _82  and  _83
REMARK   36  A    between atoms: _88  and  _90
REMARK   37  A    between atoms: _90  and  _91
REMARK   38  A    between atoms: _90  and  _93
REMARK   39  A    between atoms: _93  and  _94
REMARK   40  A    between atoms: _94  and  _95
REMARK   41  A    between atoms: _98  and  _100
REMARK   42  A    between atoms: _100  and  _101
REMARK   43  A    between atoms: _100  and  _103
REMARK   44  A    between atoms: _103  and  _104
REMARK   45  A    between atoms: _107  and  _109
REMARK   46  A    between atoms: _109  and  _110
REMARK   47  A    between atoms: _109  and  _112
REMARK   48  A    between atoms: _112  and  _113
REMARK   49  A    between atoms: _118  and  _120
REMARK   50  A    between atoms: _120  and  _121
REMARK   51  A    between atoms: _120  and  _123
REMARK   52  A    between atoms: _123  and  _124
REMARK   53  A    between atoms: _129  and  _131
REMARK   54  A    between atoms: _131  and  _132
REMARK   55  A    between atoms: _134  and  _136
REMARK   56  A    between atoms: _136  and  _137
REMARK   57  A    between atoms: _139  and  _141
REMARK   58  A    between atoms: _141  and  _142
REMARK   59  A    between atoms: _141  and  _144
REMARK   60  A    between atoms: _144  and  _145
REMARK   61  A    between atoms: _148  and  _150
REMARK   62  A    between atoms: _150  and  _151
REMARK   63  A    between atoms: _150  and  _153
REMARK   64  A    between atoms: _153  and  _154
REMARK   65  A    between atoms: _154  and  _155
REMARK   66  A    between atoms: _158  and  _160
REMARK   67  A    between atoms: _160  and  _161
REMARK   68  A    between atoms: _160  and  _163
REMARK   69  A    between atoms: _163  and  _164
REMARK   70  A    between atoms: _174  and  _176
REMARK   71  A    between atoms: _176  and  _177
REMARK   72  A    between atoms: _176  and  _179
REMARK   73  A    between atoms: _179  and  _180
REMARK   74  A    between atoms: _180  and  _181
REMARK   75  A    between atoms: _186  and  _188
REMARK   76  A    between atoms: _188  and  _189
REMARK   77  A    between atoms: _188  and  _191
REMARK   78  A    between atoms: _191  and  _192
REMARK   79  A    between atoms: _192  and  _193
REMARK   80  A    between atoms: _196  and  _198
REMARK   81  A    between atoms: _198  and  _199
REMARK   82  A    between atoms: _198  and  _201
REMARK   83  A    between atoms: _201  and  _202
REMARK   84  A    between atoms: _202  and  _203
REMARK   85  A    between atoms: _206  and  _208
REMARK   86  A    between atoms: _208  and  _209
REMARK   87  A    between atoms: _208  and  _211
REMARK   88  A    between atoms: _214  and  _216
REMARK   89  A    between atoms: _216  and  _217
REMARK   90  A    between atoms: _216  and  _219
REMARK   91  A    between atoms: _219  and  _220
REMARK   92  A    between atoms: _230  and  _232
REMARK   93  A    between atoms: _232  and  _233
REMARK   94  A    between atoms: _232  and  _235
REMARK   95  A    between atoms: _235  and  _236
REMARK   96  A    between atoms: _236  and  _237
REMARK   97  A    between atoms: _237  and  _238
REMARK   98  A    between atoms: _238  and  _239
REMARK   99  A    between atoms: _243  and  _245
REMARK  100  A    between atoms: _245  and  _246
REMARK  101  A    between atoms: _245  and  _248
REMARK  102  A    between atoms: _248  and  _249
REMARK  103  A    between atoms: _252  and  _254
REMARK  104  A    between atoms: _254  and  _255
REMARK  105  A    between atoms: _254  and  _257
REMARK  106  A    between atoms: _257  and  _258
REMARK  107  A    between atoms: _260  and  _262
REMARK  108  A    between atoms: _262  and  _263
REMARK  109  A    between atoms: _262  and  _265
REMARK  110  A    between atoms: _265  and  _266
REMARK  111  A    between atoms: _271  and  _272
REMARK  112  A    between atoms: _274  and  _276
REMARK  113  A    between atoms: _276  and  _277
REMARK  114  A    between atoms: _276  and  _279
REMARK  115  A    between atoms: _279  and  _280
REMARK  116  A    between atoms: _283  and  _285
REMARK  117  A    between atoms: _285  and  _286
REMARK  118  A    between atoms: _285  and  _288
REMARK  119  A    between atoms: _288  and  _289
REMARK  120  A    between atoms: _292  and  _294
REMARK  121  A    between atoms: _294  and  _295
REMARK  122  A    between atoms: _294  and  _297
REMARK  123  A    between atoms: _297  and  _298
REMARK  124  A    between atoms: _301  and  _303
REMARK  125  A    between atoms: _303  and  _304
REMARK  126  A    between atoms: _303  and  _306
REMARK  127  A    between atoms: _308  and  _310
REMARK  128  A    between atoms: _310  and  _311
REMARK  129  A    between atoms: _310  and  _313
REMARK  130  A    between atoms: _313  and  _314
REMARK  131  A    between atoms: _317  and  _319
REMARK  132  A    between atoms: _319  and  _320
REMARK  133  A    between atoms: _319  and  _322
REMARK  134  A    between atoms: _322  and  _323
REMARK  135  A    between atoms: _333  and  _335
REMARK  136  A    between atoms: _335  and  _336
REMARK  137  A    between atoms: _338  and  _340
REMARK  138  A    between atoms: _340  and  _341
REMARK  139  A    between atoms: _340  and  _343
REMARK  140  A    between atoms: _343  and  _344
REMARK  141  A    between atoms: _344  and  _345
REMARK  142  A    between atoms: _348  and  _350
REMARK  143  A    between atoms: _350  and  _351
REMARK  144  A    between atoms: _350  and  _353
REMARK  145  A    between atoms: _353  and  _354
REMARK  146  A    between atoms: _359  and  _360
REMARK  147  A    between atoms: _362  and  _364
REMARK  148  A    between atoms: _364  and  _365
REMARK  149  A    between atoms: _364  and  _367
REMARK  150  A    between atoms: _367  and  _368
REMARK  151  A    between atoms: _373  and  _374
REMARK  152  A    between atoms: _376  and  _378
REMARK  153  A    between atoms: _378  and  _379
REMARK  154  A    between atoms: _378  and  _381
REMARK  155  A    between atoms: _381  and  _382
REMARK  156  A    between atoms: _387  and  _388
REMARK                            x       y       z     vdW  Elec       q    Type
REMARK                         _______ _______ _______ _____ _____    ______ ____
ROOT
ATOM      1  O   HOH     1      -2.689  23.230  35.907  0.00  0.00    +0.000 OA
ENDROOT
TORSDOF 0
REMARK  Name = ../refined-set-2016/1np0/1np0_pocket.pdb
REMARK  156 active torsions:
REMARK  status: ('A' for Active; 'I' for Inactive)
REMARK    1  A    between atoms: _1  and  _3
REMARK    2  A    between atoms: _3  and  _4
REMARK    3  A    between atoms: _3  and  _6
REMARK    4  A    between atoms: _6  and  _7
REMARK    5  A    between atoms: _10  and  _12
REMARK    6  A    between atoms: _12  and  _13
REMARK    7  A    between atoms: _12  and  _15
REMARK    8  A    between atoms: _15  and  _16
REMARK    9  A    between atoms: _19  and  _21
REMARK   10  A    between atoms: _21  and  _22
REMARK   11  A    between atoms: _21  and  _24
REMARK   12  A    between atoms: _24  and  _25
REMARK   13  A    between atoms: _25  and  _26
REMARK   14  A    between atoms: _26  and  _27
REMARK   15  A    between atoms: _36  and  _38
REMARK   16  A    between atoms: _38  and  _39
REMARK   17  A    between atoms: _38  and  _41
REMARK   18  A    between atoms: _41  and  _42
REMARK   19  A    between atoms: _47  and  _49
REMARK   20  A    between atoms: _49  and  _50
REMARK   21  A    between atoms: _49  and  _52
REMARK   22  A    between atoms: _52  and  _53
REMARK   23  A    between atoms: _58  and  _60
REMARK   24  A    between atoms: _60  and  _61
REMARK   25  A    between atoms: _60  and  _63
REMARK   26  A    between atoms: _63  and  _64
REMARK   27  A    between atoms: _67  and  _69
REMARK   28  A    between atoms: _69  and  _70
REMARK   29  A    between atoms: _69  and  _72
REMARK   30  A    between atoms: _72  and  _73
REMARK   31  A    between atoms: _76  and  _78
REMARK   32  A    between atoms: _78  and  _79
REMARK   33  A    between atoms: _78  and  _81
REMARK   34  A    between atoms: _81  and  _82
REMARK   35  A    between atoms: _82  and  _83
REMARK   36  A    between atoms: _88  and  _90
REMARK   37  A    between atoms: _90  and  _91
REMARK   38  A    between atoms: _90  and  _93
REMARK   39  A    between atoms: _93  and  _94
REMARK   40  A    between atoms: _94  and  _95
REMARK   41  A    between atoms: _98  and  _100
REMARK   42  A    between atoms: _100  and  _101
REMARK   43  A    between atoms: _100  and  _103
REMARK   44  A    between atoms: _103  and  _104
REMARK   45  A    between atoms: _107  and  _109
REMARK   46  A    between atoms: _109  and  _110
REMARK   47  A    between atoms: _109  and  _112
REMARK   48  A    between atoms: _112  and  _113
REMARK   49  A    between atoms: _118  and  _120
REMARK   50  A    between atoms: _120  and  _121
REMARK   51  A    between atoms: _120  and  _123
REMARK   52  A    between atoms: _123  and  _124
REMARK   53  A    between atoms: _129  and  _131
REMARK   54  A    between atoms: _131  and  _132
REMARK   55  A    between atoms: _134  and  _136
REMARK   56  A    between atoms: _136  and  _137
REMARK   57  A    between atoms: _139  and  _141
REMARK   58  A    between atoms: _141  and  _142
REMARK   59  A    between atoms: _141  and  _144
REMARK   60  A    between atoms: _144  and  _145
REMARK   61  A    between atoms: _148  and  _150
REMARK   62  A    between atoms: _150  and  _151
REMARK   63  A    between atoms: _150  and  _153
REMARK   64  A    between atoms: _153  and  _154
REMARK   65  A    between atoms: _154  and  _155
REMARK   66  A    between atoms: _158  and  _160
REMARK   67  A    between atoms: _160  and  _161
REMARK   68  A    between atoms: _160  and  _163
REMARK   69  A    between atoms: _163  and  _164
REMARK   70  A    between atoms: _174  and  _176
REMARK   71  A    between atoms: _176  and  _177
REMARK   72  A    between atoms: _176  and  _179
REMARK   73  A    between atoms: _179  and  _180
REMARK   74  A    between atoms: _180  and  _181
REMARK   75  A    between atoms: _186  and  _188
REMARK   76  A    between atoms: _188  and  _189
REMARK   77  A    between atoms: _188  and  _191
REMARK   78  A    between atoms: _191  and  _192
REMARK   79  A    between atoms: _192  and  _193
REMARK   80  A    between atoms: _196  and  _198
REMARK   81  A    between atoms: _198  and  _199
REMARK   82  A    between atoms: _198  and  _201
REMARK   83  A    between atoms: _201  and  _202
REMARK   84  A    between atoms: _202  and  _203
REMARK   85  A    between atoms: _206  and  _208
REMARK   86  A    between atoms: _208  and  _209
REMARK   87  A    between atoms: _208  and  _211
REMARK   88  A    between atoms: _214  and  _216
REMARK   89  A    between atoms: _216  and  _217
REMARK   90  A    between atoms: _216  and  _219
REMARK   91  A    between atoms: _219  and  _220
REMARK   92  A    between atoms: _230  and  _232
REMARK   93  A    between atoms: _232  and  _233
REMARK   94  A    between atoms: _232  and  _235
REMARK   95  A    between atoms: _235  and  _236
REMARK   96  A    between atoms: _236  and  _237
REMARK   97  A    between atoms: _237  and  _238
REMARK   98  A    between atoms: _238  and  _239
REMARK   99  A    between atoms: _243  and  _245
REMARK  100  A    between atoms: _245  and  _246
REMARK  101  A    between atoms: _245  and  _248
REMARK  102  A    between atoms: _248  and  _249
REMARK  103  A    between atoms: _252  and  _254
REMARK  104  A    between atoms: _254  and  _255
REMARK  105  A    between atoms: _254  and  _257
REMARK  106  A    between atoms: _257  and  _258
REMARK  107  A    between atoms: _260  and  _262
REMARK  108  A    between atoms: _262  and  _263
REMARK  109  A    between atoms: _262  and  _265
REMARK  110  A    between atoms: _265  and  _266
REMARK  111  A    between atoms: _271  and  _272
REMARK  112  A    between atoms: _274  and  _276
REMARK  113  A    between atoms: _276  and  _277
REMARK  114  A    between atoms: _276  and  _279
REMARK  115  A    between atoms: _279  and  _280
REMARK  116  A    between atoms: _283  and  _285
REMARK  117  A    between atoms: _285  and  _286
REMARK  118  A    between atoms: _285  and  _288
REMARK  119  A    between atoms: _288  and  _289
REMARK  120  A    between atoms: _292  and  _294
REMARK  121  A    between atoms: _294  and  _295
REMARK  122  A    between atoms: _294  and  _297
REMARK  123  A    between atoms: _297  and  _298
REMARK  124  A    between atoms: _301  and  _303
REMARK  125  A    between atoms: _303  and  _304
REMARK  126  A    between atoms: _303  and  _306
REMARK  127  A    between atoms: _308  and  _310
REMARK  128  A    between atoms: _310  and  _311
REMARK  129  A    between atoms: _310  and  _313
REMARK  130  A    between atoms: _313  and  _314
REMARK  131  A    between atoms: _317  and  _319
REMARK  132  A    between atoms: _319  and  _320
REMARK  133  A    between atoms: _319  and  _322
REMARK  134  A    between atoms: _322  and  _323
REMARK  135  A    between atoms: _333  and  _335
REMARK  136  A    between atoms: _335  and  _336
REMARK  137  A    between atoms: _338  and  _340
REMARK  138  A    between atoms: _340  and  _341
REMARK  139  A    between atoms: _340  and  _343
REMARK  140  A    between atoms: _343  and  _344
REMARK  141  A    between atoms: _344  and  _345
REMARK  142  A    between atoms: _348  and  _350
REMARK  143  A    between atoms: _350  and  _351
REMARK  144  A    between atoms: _350  and  _353
REMARK  145  A    between atoms: _353  and  _354
REMARK  146  A    between atoms: _359  and  _360
REMARK  147  A    between atoms: _362  and  _364
REMARK  148  A    between atoms: _364  and  _365
REMARK  149  A    between atoms: _364  and  _367
REMARK  150  A    between atoms: _367  and  _368
REMARK  151  A    between atoms: _373  and  _374
REMARK  152  A    between atoms: _376  and  _378
REMARK  153  A    between atoms: _378  and  _379
REMARK  154  A    between atoms: _378  and  _381
REMARK  155  A    between atoms: _381  and  _382
REMARK  156  A    between atoms: _387  and  _388
REMARK                            x       y       z     vdW  Elec       q    Type
REMARK                         _______ _______ _______ _____ _____    ______ ____
ROOT
ATOM      1  O   HOH     1       5.093  22.835  39.954  0.00  0.00    +0.000 OA
ENDROOT
TORSDOF 0
REMARK  Name = ../refined-set-2016/1np0/1np0_pocket.pdb
REMARK  156 active torsions:
REMARK  status: ('A' for Active; 'I' for Inactive)
REMARK    1  A    between atoms: _1  and  _3
REMARK    2  A    between atoms: _3  and  _4
REMARK    3  A    between atoms: _3  and  _6
REMARK    4  A    between atoms: _6  and  _7
REMARK    5  A    between atoms: _10  and  _12
REMARK    6  A    between atoms: _12  and  _13
REMARK    7  A    between atoms: _12  and  _15
REMARK    8  A    between atoms: _15  and  _16
REMARK    9  A    between atoms: _19  and  _21
REMARK   10  A    between atoms: _21  and  _22
REMARK   11  A    between atoms: _21  and  _24
REMARK   12  A    between atoms: _24  and  _25
REMARK   13  A    between atoms: _25  and  _26
REMARK   14  A    between atoms: _26  and  _27
REMARK   15  A    between atoms: _36  and  _38
REMARK   16  A    between atoms: _38  and  _39
REMARK   17  A    between atoms: _38  and  _41
REMARK   18  A    between atoms: _41  and  _42
REMARK   19  A    between atoms: _47  and  _49
REMARK   20  A    between atoms: _49  and  _50
REMARK   21  A    between atoms: _49  and  _52
REMARK   22  A    between atoms: _52  and  _53
REMARK   23  A    between atoms: _58  and  _60
REMARK   24  A    between atoms: _60  and  _61
REMARK   25  A    between atoms: _60  and  _63
REMARK   26  A    between atoms: _63  and  _64
REMARK   27  A    between atoms: _67  and  _69
REMARK   28  A    between atoms: _69  and  _70
REMARK   29  A    between atoms: _69  and  _72
REMARK   30  A    between atoms: _72  and  _73
REMARK   31  A    between atoms: _76  and  _78
REMARK   32  A    between atoms: _78  and  _79
REMARK   33  A    between atoms: _78  and  _81
REMARK   34  A    between atoms: _81  and  _82
REMARK   35  A    between atoms: _82  and  _83
REMARK   36  A    between atoms: _88  and  _90
REMARK   37  A    between atoms: _90  and  _91
REMARK   38  A    between atoms: _90  and  _93
REMARK   39  A    between atoms: _93  and  _94
REMARK   40  A    between atoms: _94  and  _95
REMARK   41  A    between atoms: _98  and  _100
REMARK   42  A    between atoms: _100  and  _101
REMARK   43  A    between atoms: _100  and  _103
REMARK   44  A    between atoms: _103  and  _104
REMARK   45  A    between atoms: _107  and  _109
REMARK   46  A    between atoms: _109  and  _110
REMARK   47  A    between atoms: _109  and  _112
REMARK   48  A    between atoms: _112  and  _113
REMARK   49  A    between atoms: _118  and  _120
REMARK   50  A    between atoms: _120  and  _121
REMARK   51  A    between atoms: _120  and  _123
REMARK   52  A    between atoms: _123  and  _124
REMARK   53  A    between atoms: _129  and  _131
REMARK   54  A    between atoms: _131  and  _132
REMARK   55  A    between atoms: _134  and  _136
REMARK   56  A    between atoms: _136  and  _137
REMARK   57  A    between atoms: _139  and  _141
REMARK   58  A    between atoms: _141  and  _142
REMARK   59  A    between atoms: _141  and  _144
REMARK   60  A    between atoms: _144  and  _145
REMARK   61  A    between atoms: _148  and  _150
REMARK   62  A    between atoms: _150  and  _151
REMARK   63  A    between atoms: _150  and  _153
REMARK   64  A    between atoms: _153  and  _154
REMARK   65  A    between atoms: _154  and  _155
REMARK   66  A    between atoms: _158  and  _160
REMARK   67  A    between atoms: _160  and  _161
REMARK   68  A    between atoms: _160  and  _163
REMARK   69  A    between atoms: _163  and  _164
REMARK   70  A    between atoms: _174  and  _176
REMARK   71  A    between atoms: _176  and  _177
REMARK   72  A    between atoms: _176  and  _179
REMARK   73  A    between atoms: _179  and  _180
REMARK   74  A    between atoms: _180  and  _181
REMARK   75  A    between atoms: _186  and  _188
REMARK   76  A    between atoms: _188  and  _189
REMARK   77  A    between atoms: _188  and  _191
REMARK   78  A    between atoms: _191  and  _192
REMARK   79  A    between atoms: _192  and  _193
REMARK   80  A    between atoms: _196  and  _198
REMARK   81  A    between atoms: _198  and  _199
REMARK   82  A    between atoms: _198  and  _201
REMARK   83  A    between atoms: _201  and  _202
REMARK   84  A    between atoms: _202  and  _203
REMARK   85  A    between atoms: _206  and  _208
REMARK   86  A    between atoms: _208  and  _209
REMARK   87  A    between atoms: _208  and  _211
REMARK   88  A    between atoms: _214  and  _216
REMARK   89  A    between atoms: _216  and  _217
REMARK   90  A    between atoms: _216  and  _219
REMARK   91  A    between atoms: _219  and  _220
REMARK   92  A    between atoms: _230  and  _232
REMARK   93  A    between atoms: _232  and  _233
REMARK   94  A    between atoms: _232  and  _235
REMARK   95  A    between atoms: _235  and  _236
REMARK   96  A    between atoms: _236  and  _237
REMARK   97  A    between atoms: _237  and  _238
REMARK   98  A    between atoms: _238  and  _239
REMARK   99  A    between atoms: _243  and  _245
REMARK  100  A    between atoms: _245  and  _246
REMARK  101  A    between atoms: _245  and  _248
REMARK  102  A    between atoms: _248  and  _249
REMARK  103  A    between atoms: _252  and  _254
REMARK  104  A    between atoms: _254  and  _255
REMARK  105  A    between atoms: _254  and  _257
REMARK  106  A    between atoms: _257  and  _258
REMARK  107  A    between atoms: _260  and  _262
REMARK  108  A    between atoms: _262  and  _263
REMARK  109  A    between atoms: _262  and  _265
REMARK  110  A    between atoms: _265  and  _266
REMARK  111  A    between atoms: _271  and  _272
REMARK  112  A    between atoms: _274  and  _276
REMARK  113  A    between atoms: _276  and  _277
REMARK  114  A    between atoms: _276  and  _279
REMARK  115  A    between atoms: _279  and  _280
REMARK  116  A    between atoms: _283  and  _285
REMARK  117  A    between atoms: _285  and  _286
REMARK  118  A    between atoms: _285  and  _288
REMARK  119  A    between atoms: _288  and  _289
REMARK  120  A    between atoms: _292  and  _294
REMARK  121  A    between atoms: _294  and  _295
REMARK  122  A    between atoms: _294  and  _297
REMARK  123  A    between atoms: _297  and  _298
REMARK  124  A    between atoms: _301  and  _303
REMARK  125  A    between atoms: _303  and  _304
REMARK  126  A    between atoms: _303  and  _306
REMARK  127  A    between atoms: _308  and  _310
REMARK  128  A    between atoms: _310  and  _311
REMARK  129  A    between atoms: _310  and  _313
REMARK  130  A    between atoms: _313  and  _314
REMARK  131  A    between atoms: _317  and  _319
REMARK  132  A    between atoms: _319  and  _320
REMARK  133  A    between atoms: _319  and  _322
REMARK  134  A    between atoms: _322  and  _323
REMARK  135  A    between atoms: _333  and  _335
REMARK  136  A    between atoms: _335  and  _336
REMARK  137  A    between atoms: _338  and  _340
REMARK  138  A    between atoms: _340  and  _341
REMARK  139  A    between atoms: _340  and  _343
REMARK  140  A    between atoms: _343  and  _344
REMARK  141  A    between atoms: _344  and  _345
REMARK  142  A    between atoms: _348  and  _350
REMARK  143  A    between atoms: _350  and  _351
REMARK  144  A    between atoms: _350  and  _353
REMARK  145  A    between atoms: _353  and  _354
REMARK  146  A    between atoms: _359  and  _360
REMARK  147  A    between atoms: _362  and  _364
REMARK  148  A    between atoms: _364  and  _365
REMARK  149  A    between atoms: _364  and  _367
REMARK  150  A    between atoms: _367  and  _368
REMARK  151  A    between atoms: _373  and  _374
REMARK  152  A    between atoms: _376  and  _378
REMARK  153  A    between atoms: _378  and  _379
REMARK  154  A    between atoms: _378  and  _381
REMARK  155  A    between atoms: _381  and  _382
REMARK  156  A    between atoms: _387  and  _388
REMARK                            x       y       z     vdW  Elec       q    Type
REMARK                         _______ _______ _______ _____ _____    ______ ____
ROOT
ATOM      1  O   HOH     1      11.518  18.779  36.671  0.00  0.00    +0.000 OA
ENDROOT
TORSDOF 0
