REMARK  Name = ../refined-set-2016/2vvu/2vvu_pocket.pdb
REMARK  219 active torsions:
REMARK  status: ('A' for Active; 'I' for Inactive)
REMARK    1  A    between atoms: _1  and  _5
REMARK    2  A    between atoms: _5  and  _6
REMARK    3  A    between atoms: _5  and  _8
REMARK    4  A    between atoms: _8  and  _9
REMARK    5  A    between atoms: _12  and  _14
REMARK    6  A    between atoms: _14  and  _15
REMARK    7  A    between atoms: _14  and  _17
REMARK    8  A    between atoms: _20  and  _22
REMARK    9  A    between atoms: _22  and  _23
REMARK   10  A    between atoms: _22  and  _25
REMARK   11  A    between atoms: _25  and  _26
REMARK   12  A    between atoms: _31  and  _33
REMARK   13  A    between atoms: _33  and  _34
REMARK   14  A    between atoms: _33  and  _36
REMARK   15  A    between atoms: _36  and  _37
REMARK   16  A    between atoms: _37  and  _38
REMARK   17  A    between atoms: _43  and  _45
REMARK   18  A    between atoms: _45  and  _46
REMARK   19  A    between atoms: _45  and  _48
REMARK   20  A    between atoms: _48  and  _49
REMARK   21  A    between atoms: _52  and  _54
REMARK   22  A    between atoms: _54  and  _55
REMARK   23  A    between atoms: _54  and  _57
REMARK   24  A    between atoms: _57  and  _58
REMARK   25  A    between atoms: _58  and  _59
REMARK   26  A    between atoms: _59  and  _60
REMARK   27  A    between atoms: _60  and  _61
REMARK   28  A    between atoms: _65  and  _67
REMARK   29  A    between atoms: _67  and  _68
REMARK   30  A    between atoms: _67  and  _70
REMARK   31  A    between atoms: _70  and  _71
REMARK   32  A    between atoms: _71  and  _72
REMARK   33  A    between atoms: _75  and  _77
REMARK   34  A    between atoms: _77  and  _78
REMARK   35  A    between atoms: _77  and  _80
REMARK   36  A    between atoms: _80  and  _81
REMARK   37  A    between atoms: _84  and  _86
REMARK   38  A    between atoms: _86  and  _87
REMARK   39  A    between atoms: _86  and  _89
REMARK   40  A    between atoms: _89  and  _90
REMARK   41  A    between atoms: _95  and  _96
REMARK   42  A    between atoms: _98  and  _100
REMARK   43  A    between atoms: _100  and  _101
REMARK   44  A    between atoms: _100  and  _103
REMARK   45  A    between atoms: _103  and  _104
REMARK   46  A    between atoms: _107  and  _109
REMARK   47  A    between atoms: _109  and  _110
REMARK   48  A    between atoms: _109  and  _112
REMARK   49  A    between atoms: _112  and  _113
REMARK   50  A    between atoms: _116  and  _118
REMARK   51  A    between atoms: _118  and  _119
REMARK   52  A    between atoms: _118  and  _121
REMARK   53  A    between atoms: _124  and  _126
REMARK   54  A    between atoms: _126  and  _127
REMARK   55  A    between atoms: _126  and  _129
REMARK   56  A    between atoms: _129  and  _130
REMARK   57  A    between atoms: _130  and  _131
REMARK   58  A    between atoms: _131  and  _132
REMARK   59  A    between atoms: _141  and  _143
REMARK   60  A    between atoms: _143  and  _144
REMARK   61  A    between atoms: _143  and  _146
REMARK   62  A    between atoms: _146  and  _147
REMARK   63  A    between atoms: _152  and  _154
REMARK   64  A    between atoms: _154  and  _155
REMARK   65  A    between atoms: _154  and  _157
REMARK   66  A    between atoms: _157  and  _158
REMARK   67  A    between atoms: _158  and  _159
REMARK   68  A    between atoms: _162  and  _164
REMARK   69  A    between atoms: _164  and  _165
REMARK   70  A    between atoms: _164  and  _167
REMARK   71  A    between atoms: _167  and  _168
REMARK   72  A    between atoms: _168  and  _169
REMARK   73  A    between atoms: _169  and  _170
REMARK   74  A    between atoms: _170  and  _171
REMARK   75  A    between atoms: _175  and  _177
REMARK   76  A    between atoms: _177  and  _178
REMARK   77  A    between atoms: _177  and  _180
REMARK   78  A    between atoms: _183  and  _185
REMARK   79  A    between atoms: _185  and  _186
REMARK   80  A    between atoms: _185  and  _188
REMARK   81  A    between atoms: _188  and  _189
REMARK   82  A    between atoms: _191  and  _193
REMARK   83  A    between atoms: _193  and  _194
REMARK   84  A    between atoms: _193  and  _196
REMARK   85  A    between atoms: _196  and  _197
REMARK   86  A    between atoms: _199  and  _201
REMARK   87  A    between atoms: _201  and  _202
REMARK   88  A    between atoms: _201  and  _204
REMARK   89  A    between atoms: _204  and  _205
REMARK   90  A    between atoms: _211  and  _213
REMARK   91  A    between atoms: _213  and  _214
REMARK   92  A    between atoms: _213  and  _216
REMARK   93  A    between atoms: _216  and  _217
REMARK   94  A    between atoms: _220  and  _222
REMARK   95  A    between atoms: _222  and  _223
REMARK   96  A    between atoms: _222  and  _225
REMARK   97  A    between atoms: _225  and  _226
REMARK   98  A    between atoms: _229  and  _231
REMARK   99  A    between atoms: _231  and  _232
REMARK  100  A    between atoms: _231  and  _234
REMARK  101  A    between atoms: _234  and  _235
REMARK  102  A    between atoms: _238  and  _240
REMARK  103  A    between atoms: _240  and  _241
REMARK  104  A    between atoms: _240  and  _243
REMARK  105  A    between atoms: _243  and  _244
REMARK  106  A    between atoms: _244  and  _245
REMARK  107  A    between atoms: _247  and  _249
REMARK  108  A    between atoms: _249  and  _250
REMARK  109  A    between atoms: _249  and  _252
REMARK  110  A    between atoms: _252  and  _253
REMARK  111  A    between atoms: _259  and  _261
REMARK  112  A    between atoms: _261  and  _262
REMARK  113  A    between atoms: _261  and  _264
REMARK  114  A    between atoms: _266  and  _268
REMARK  115  A    between atoms: _268  and  _269
REMARK  116  A    between atoms: _272  and  _274
REMARK  117  A    between atoms: _274  and  _275
REMARK  118  A    between atoms: _277  and  _279
REMARK  119  A    between atoms: _279  and  _280
REMARK  120  A    between atoms: _279  and  _282
REMARK  121  A    between atoms: _282  and  _283
REMARK  122  A    between atoms: _283  and  _284
REMARK  123  A    between atoms: _287  and  _289
REMARK  124  A    between atoms: _289  and  _290
REMARK  125  A    between atoms: _289  and  _292
REMARK  126  A    between atoms: _292  and  _293
REMARK  127  A    between atoms: _296  and  _298
REMARK  128  A    between atoms: _298  and  _299
REMARK  129  A    between atoms: _302  and  _304
REMARK  130  A    between atoms: _304  and  _305
REMARK  131  A    between atoms: _304  and  _307
REMARK  132  A    between atoms: _307  and  _308
REMARK  133  A    between atoms: _308  and  _431
REMARK  134  A    between atoms: _309  and  _311
REMARK  135  A    between atoms: _311  and  _312
REMARK  136  A    between atoms: _311  and  _314
REMARK  137  A    between atoms: _314  and  _315
REMARK  138  A    between atoms: _315  and  _316
REMARK  139  A    between atoms: _321  and  _323
REMARK  140  A    between atoms: _323  and  _324
REMARK  141  A    between atoms: _326  and  _328
REMARK  142  A    between atoms: _328  and  _329
REMARK  143  A    between atoms: _328  and  _331
REMARK  144  A    between atoms: _331  and  _332
REMARK  145  A    between atoms: _335  and  _337
REMARK  146  A    between atoms: _337  and  _338
REMARK  147  A    between atoms: _337  and  _340
REMARK  148  A    between atoms: _340  and  _341
REMARK  149  A    between atoms: _343  and  _345
REMARK  150  A    between atoms: _345  and  _346
REMARK  151  A    between atoms: _348  and  _350
REMARK  152  A    between atoms: _350  and  _351
REMARK  153  A    between atoms: _353  and  _355
REMARK  154  A    between atoms: _355  and  _356
REMARK  155  A    between atoms: _355  and  _358
REMARK  156  A    between atoms: _358  and  _359
REMARK  157  A    between atoms: _364  and  _366
REMARK  158  A    between atoms: _366  and  _367
REMARK  159  A    between atoms: _366  and  _369
REMARK  160  A    between atoms: _369  and  _370
REMARK  161  A    between atoms: _373  and  _375
REMARK  162  A    between atoms: _375  and  _376
REMARK  163  A    between atoms: _375  and  _378
REMARK  164  A    between atoms: _381  and  _383
REMARK  165  A    between atoms: _383  and  _384
REMARK  166  A    between atoms: _383  and  _386
REMARK  167  A    between atoms: _386  and  _387
REMARK  168  A    between atoms: _389  and  _391
REMARK  169  A    between atoms: _391  and  _392
REMARK  170  A    between atoms: _391  and  _394
REMARK  171  A    between atoms: _394  and  _395
REMARK  172  A    between atoms: _405  and  _407
REMARK  173  A    between atoms: _407  and  _408
REMARK  174  A    between atoms: _410  and  _412
REMARK  175  A    between atoms: _412  and  _413
REMARK  176  A    between atoms: _412  and  _415
REMARK  177  A    between atoms: _415  and  _416
REMARK  178  A    between atoms: _416  and  _417
REMARK  179  A    between atoms: _420  and  _422
REMARK  180  A    between atoms: _422  and  _423
REMARK  181  A    between atoms: _425  and  _427
REMARK  182  A    between atoms: _427  and  _428
REMARK  183  A    between atoms: _427  and  _430
REMARK  184  A    between atoms: _430  and  _431
REMARK  185  A    between atoms: _432  and  _434
REMARK  186  A    between atoms: _434  and  _435
REMARK  187  A    between atoms: _438  and  _440
REMARK  188  A    between atoms: _440  and  _441
REMARK  189  A    between atoms: _440  and  _443
REMARK  190  A    between atoms: _443  and  _444
REMARK  191  A    between atoms: _444  and  _445
REMARK  192  A    between atoms: _445  and  _446
REMARK  193  A    between atoms: _455  and  _457
REMARK  194  A    between atoms: _457  and  _458
REMARK  195  A    between atoms: _457  and  _460
REMARK  196  A    between atoms: _460  and  _461
REMARK  197  A    between atoms: _461  and  _462
REMARK  198  A    between atoms: _462  and  _463
REMARK  199  A    between atoms: _463  and  _464
REMARK  200  A    between atoms: _468  and  _470
REMARK  201  A    between atoms: _470  and  _471
REMARK  202  A    between atoms: _470  and  _473
REMARK  203  A    between atoms: _473  and  _474
REMARK  204  A    between atoms: _479  and  _480
REMARK  205  A    between atoms: _482  and  _484
REMARK  206  A    between atoms: _484  and  _485
REMARK  207  A    between atoms: _487  and  _489
REMARK  208  A    between atoms: _489  and  _490
REMARK  209  A    between atoms: _489  and  _492
REMARK  210  A    between atoms: _492  and  _493
REMARK  211  A    between atoms: _496  and  _498
REMARK  212  A    between atoms: _498  and  _499
REMARK  213  A    between atoms: _498  and  _501
REMARK  214  A    between atoms: _501  and  _502
REMARK  215  A    between atoms: _507  and  _508
REMARK  216  A    between atoms: _510  and  _512
REMARK  217  A    between atoms: _512  and  _513
REMARK  218  A    between atoms: _512  and  _515
REMARK  219  A    between atoms: _515  and  _516
REMARK                            x       y       z     vdW  Elec       q    Type
REMARK                         _______ _______ _______ _____ _____    ______ ____
ROOT
ATOM      1  C   ILE A   1       1.552  12.562  34.681  0.00  0.00    +0.202 C 
ATOM      2  O   ILE A   1       1.959  13.491  35.402  0.00  0.00    -0.277 OA
ATOM      3  N   VAL A   2       0.328  12.049  34.767  0.00  0.00    -0.301 N 
ATOM      4  H   VAL A   2       0.036  11.322  34.083  0.00  0.00    +0.150 HD
ENDROOT
BRANCH   1   5
ATOM      5  CA  ILE A   1       2.460  11.934  33.641  0.00  0.00    +0.013 C 
BRANCH   5   6
ATOM      6  N   ILE A   1       2.859  12.940  32.635  0.00  0.00    +0.387 N 
ATOM      7  H1  ILE A   1       3.366  13.717  33.105  0.00  0.00    -0.089 HD
ATOM      8  H2  ILE A   1       2.010  13.314  32.165  0.00  0.00    -0.089 HD
ATOM      9  H3  ILE A   1       3.480  12.495  31.930  0.00  0.00    -0.089 HD
ENDBRANCH   5   6
BRANCH   5  10
ATOM     10  CB  ILE A   1       3.662  11.358  34.418  0.00  0.00    -0.011 C 
ATOM     11  CG2 ILE A   1       3.159  10.368  35.474  0.00  0.00    -0.002 C 
BRANCH  10  12
ATOM     12  CG1 ILE A   1       4.701  10.735  33.473  0.00  0.00    -0.002 C 
ATOM     13  CD1 ILE A   1       4.280   9.387  32.844  0.00  0.00    -0.000 C 
ENDBRANCH  10  12
ENDBRANCH   5  10
ENDBRANCH   1   5
BRANCH   3  14
ATOM     14  CA  VAL A   2      -0.610  12.475  35.787  0.00  0.00    +0.137 C 
BRANCH  14  15
ATOM     15  CB  VAL A   2      -2.049  12.379  35.251  0.00  0.00    +0.026 C 
ATOM     16  CG2 VAL A   2      -3.081  12.728  36.343  0.00  0.00    +0.002 C 
ATOM     17  CG1 VAL A   2      -2.206  13.269  34.020  0.00  0.00    +0.002 C 
ENDBRANCH  14  15
BRANCH  14  18
ATOM     18  C   VAL A   2      -0.471  11.583  37.025  0.00  0.00    +0.227 C 
ATOM     19  O   VAL A   2      -0.664  10.358  36.947  0.00  0.00    -0.286 OA
ENDBRANCH  14  18
ENDBRANCH   3  14
TORSDOF 7
REMARK  Name = ../refined-set-2016/2vvu/2vvu_pocket.pdb
REMARK  219 active torsions:
REMARK  status: ('A' for Active; 'I' for Inactive)
REMARK    1  A    between atoms: _1  and  _5
REMARK    2  A    between atoms: _5  and  _6
REMARK    3  A    between atoms: _5  and  _8
REMARK    4  A    between atoms: _8  and  _9
REMARK    5  A    between atoms: _12  and  _14
REMARK    6  A    between atoms: _14  and  _15
REMARK    7  A    between atoms: _14  and  _17
REMARK    8  A    between atoms: _20  and  _22
REMARK    9  A    between atoms: _22  and  _23
REMARK   10  A    between atoms: _22  and  _25
REMARK   11  A    between atoms: _25  and  _26
REMARK   12  A    between atoms: _31  and  _33
REMARK   13  A    between atoms: _33  and  _34
REMARK   14  A    between atoms: _33  and  _36
REMARK   15  A    between atoms: _36  and  _37
REMARK   16  A    between atoms: _37  and  _38
REMARK   17  A    between atoms: _43  and  _45
REMARK   18  A    between atoms: _45  and  _46
REMARK   19  A    between atoms: _45  and  _48
REMARK   20  A    between atoms: _48  and  _49
REMARK   21  A    between atoms: _52  and  _54
REMARK   22  A    between atoms: _54  and  _55
REMARK   23  A    between atoms: _54  and  _57
REMARK   24  A    between atoms: _57  and  _58
REMARK   25  A    between atoms: _58  and  _59
REMARK   26  A    between atoms: _59  and  _60
REMARK   27  A    between atoms: _60  and  _61
REMARK   28  A    between atoms: _65  and  _67
REMARK   29  A    between atoms: _67  and  _68
REMARK   30  A    between atoms: _67  and  _70
REMARK   31  A    between atoms: _70  and  _71
REMARK   32  A    between atoms: _71  and  _72
REMARK   33  A    between atoms: _75  and  _77
REMARK   34  A    between atoms: _77  and  _78
REMARK   35  A    between atoms: _77  and  _80
REMARK   36  A    between atoms: _80  and  _81
REMARK   37  A    between atoms: _84  and  _86
REMARK   38  A    between atoms: _86  and  _87
REMARK   39  A    between atoms: _86  and  _89
REMARK   40  A    between atoms: _89  and  _90
REMARK   41  A    between atoms: _95  and  _96
REMARK   42  A    between atoms: _98  and  _100
REMARK   43  A    between atoms: _100  and  _101
REMARK   44  A    between atoms: _100  and  _103
REMARK   45  A    between atoms: _103  and  _104
REMARK   46  A    between atoms: _107  and  _109
REMARK   47  A    between atoms: _109  and  _110
REMARK   48  A    between atoms: _109  and  _112
REMARK   49  A    between atoms: _112  and  _113
REMARK   50  A    between atoms: _116  and  _118
REMARK   51  A    between atoms: _118  and  _119
REMARK   52  A    between atoms: _118  and  _121
REMARK   53  A    between atoms: _124  and  _126
REMARK   54  A    between atoms: _126  and  _127
REMARK   55  A    between atoms: _126  and  _129
REMARK   56  A    between atoms: _129  and  _130
REMARK   57  A    between atoms: _130  and  _131
REMARK   58  A    between atoms: _131  and  _132
REMARK   59  A    between atoms: _141  and  _143
REMARK   60  A    between atoms: _143  and  _144
REMARK   61  A    between atoms: _143  and  _146
REMARK   62  A    between atoms: _146  and  _147
REMARK   63  A    between atoms: _152  and  _154
REMARK   64  A    between atoms: _154  and  _155
REMARK   65  A    between atoms: _154  and  _157
REMARK   66  A    between atoms: _157  and  _158
REMARK   67  A    between atoms: _158  and  _159
REMARK   68  A    between atoms: _162  and  _164
REMARK   69  A    between atoms: _164  and  _165
REMARK   70  A    between atoms: _164  and  _167
REMARK   71  A    between atoms: _167  and  _168
REMARK   72  A    between atoms: _168  and  _169
REMARK   73  A    between atoms: _169  and  _170
REMARK   74  A    between atoms: _170  and  _171
REMARK   75  A    between atoms: _175  and  _177
REMARK   76  A    between atoms: _177  and  _178
REMARK   77  A    between atoms: _177  and  _180
REMARK   78  A    between atoms: _183  and  _185
REMARK   79  A    between atoms: _185  and  _186
REMARK   80  A    between atoms: _185  and  _188
REMARK   81  A    between atoms: _188  and  _189
REMARK   82  A    between atoms: _191  and  _193
REMARK   83  A    between atoms: _193  and  _194
REMARK   84  A    between atoms: _193  and  _196
REMARK   85  A    between atoms: _196  and  _197
REMARK   86  A    between atoms: _199  and  _201
REMARK   87  A    between atoms: _201  and  _202
REMARK   88  A    between atoms: _201  and  _204
REMARK   89  A    between atoms: _204  and  _205
REMARK   90  A    between atoms: _211  and  _213
REMARK   91  A    between atoms: _213  and  _214
REMARK   92  A    between atoms: _213  and  _216
REMARK   93  A    between atoms: _216  and  _217
REMARK   94  A    between atoms: _220  and  _222
REMARK   95  A    between atoms: _222  and  _223
REMARK   96  A    between atoms: _222  and  _225
REMARK   97  A    between atoms: _225  and  _226
REMARK   98  A    between atoms: _229  and  _231
REMARK   99  A    between atoms: _231  and  _232
REMARK  100  A    between atoms: _231  and  _234
REMARK  101  A    between atoms: _234  and  _235
REMARK  102  A    between atoms: _238  and  _240
REMARK  103  A    between atoms: _240  and  _241
REMARK  104  A    between atoms: _240  and  _243
REMARK  105  A    between atoms: _243  and  _244
REMARK  106  A    between atoms: _244  and  _245
REMARK  107  A    between atoms: _247  and  _249
REMARK  108  A    between atoms: _249  and  _250
REMARK  109  A    between atoms: _249  and  _252
REMARK  110  A    between atoms: _252  and  _253
REMARK  111  A    between atoms: _259  and  _261
REMARK  112  A    between atoms: _261  and  _262
REMARK  113  A    between atoms: _261  and  _264
REMARK  114  A    between atoms: _266  and  _268
REMARK  115  A    between atoms: _268  and  _269
REMARK  116  A    between atoms: _272  and  _274
REMARK  117  A    between atoms: _274  and  _275
REMARK  118  A    between atoms: _277  and  _279
REMARK  119  A    between atoms: _279  and  _280
REMARK  120  A    between atoms: _279  and  _282
REMARK  121  A    between atoms: _282  and  _283
REMARK  122  A    between atoms: _283  and  _284
REMARK  123  A    between atoms: _287  and  _289
REMARK  124  A    between atoms: _289  and  _290
REMARK  125  A    between atoms: _289  and  _292
REMARK  126  A    between atoms: _292  and  _293
REMARK  127  A    between atoms: _296  and  _298
REMARK  128  A    between atoms: _298  and  _299
REMARK  129  A    between atoms: _302  and  _304
REMARK  130  A    between atoms: _304  and  _305
REMARK  131  A    between atoms: _304  and  _307
REMARK  132  A    between atoms: _307  and  _308
REMARK  133  A    between atoms: _308  and  _431
REMARK  134  A    between atoms: _309  and  _311
REMARK  135  A    between atoms: _311  and  _312
REMARK  136  A    between atoms: _311  and  _314
REMARK  137  A    between atoms: _314  and  _315
REMARK  138  A    between atoms: _315  and  _316
REMARK  139  A    between atoms: _321  and  _323
REMARK  140  A    between atoms: _323  and  _324
REMARK  141  A    between atoms: _326  and  _328
REMARK  142  A    between atoms: _328  and  _329
REMARK  143  A    between atoms: _328  and  _331
REMARK  144  A    between atoms: _331  and  _332
REMARK  145  A    between atoms: _335  and  _337
REMARK  146  A    between atoms: _337  and  _338
REMARK  147  A    between atoms: _337  and  _340
REMARK  148  A    between atoms: _340  and  _341
REMARK  149  A    between atoms: _343  and  _345
REMARK  150  A    between atoms: _345  and  _346
REMARK  151  A    between atoms: _348  and  _350
REMARK  152  A    between atoms: _350  and  _351
REMARK  153  A    between atoms: _353  and  _355
REMARK  154  A    between atoms: _355  and  _356
REMARK  155  A    between atoms: _355  and  _358
REMARK  156  A    between atoms: _358  and  _359
REMARK  157  A    between atoms: _364  and  _366
REMARK  158  A    between atoms: _366  and  _367
REMARK  159  A    between atoms: _366  and  _369
REMARK  160  A    between atoms: _369  and  _370
REMARK  161  A    between atoms: _373  and  _375
REMARK  162  A    between atoms: _375  and  _376
REMARK  163  A    between atoms: _375  and  _378
REMARK  164  A    between atoms: _381  and  _383
REMARK  165  A    between atoms: _383  and  _384
REMARK  166  A    between atoms: _383  and  _386
REMARK  167  A    between atoms: _386  and  _387
REMARK  168  A    between atoms: _389  and  _391
REMARK  169  A    between atoms: _391  and  _392
REMARK  170  A    between atoms: _391  and  _394
REMARK  171  A    between atoms: _394  and  _395
REMARK  172  A    between atoms: _405  and  _407
REMARK  173  A    between atoms: _407  and  _408
REMARK  174  A    between atoms: _410  and  _412
REMARK  175  A    between atoms: _412  and  _413
REMARK  176  A    between atoms: _412  and  _415
REMARK  177  A    between atoms: _415  and  _416
REMARK  178  A    between atoms: _416  and  _417
REMARK  179  A    between atoms: _420  and  _422
REMARK  180  A    between atoms: _422  and  _423
REMARK  181  A    between atoms: _425  and  _427
REMARK  182  A    between atoms: _427  and  _428
REMARK  183  A    between atoms: _427  and  _430
REMARK  184  A    between atoms: _430  and  _431
REMARK  185  A    between atoms: _432  and  _434
REMARK  186  A    between atoms: _434  and  _435
REMARK  187  A    between atoms: _438  and  _440
REMARK  188  A    between atoms: _440  and  _441
REMARK  189  A    between atoms: _440  and  _443
REMARK  190  A    between atoms: _443  and  _444
REMARK  191  A    between atoms: _444  and  _445
REMARK  192  A    between atoms: _445  and  _446
REMARK  193  A    between atoms: _455  and  _457
REMARK  194  A    between atoms: _457  and  _458
REMARK  195  A    between atoms: _457  and  _460
REMARK  196  A    between atoms: _460  and  _461
REMARK  197  A    between atoms: _461  and  _462
REMARK  198  A    between atoms: _462  and  _463
REMARK  199  A    between atoms: _463  and  _464
REMARK  200  A    between atoms: _468  and  _470
REMARK  201  A    between atoms: _470  and  _471
REMARK  202  A    between atoms: _470  and  _473
REMARK  203  A    between atoms: _473  and  _474
REMARK  204  A    between atoms: _479  and  _480
REMARK  205  A    between atoms: _482  and  _484
REMARK  206  A    between atoms: _484  and  _485
REMARK  207  A    between atoms: _487  and  _489
REMARK  208  A    between atoms: _489  and  _490
REMARK  209  A    between atoms: _489  and  _492
REMARK  210  A    between atoms: _492  and  _493
REMARK  211  A    between atoms: _496  and  _498
REMARK  212  A    between atoms: _498  and  _499
REMARK  213  A    between atoms: _498  and  _501
REMARK  214  A    between atoms: _501  and  _502
REMARK  215  A    between atoms: _507  and  _508
REMARK  216  A    between atoms: _510  and  _512
REMARK  217  A    between atoms: _512  and  _513
REMARK  218  A    between atoms: _512  and  _515
REMARK  219  A    between atoms: _515  and  _516
REMARK                            x       y       z     vdW  Elec       q    Type
REMARK                         _______ _______ _______ _____ _____    ______ ____
ROOT
ATOM      1  CB  HIS A   1       2.055   8.356  16.266  0.00  0.00    +0.072 C 
ENDROOT
BRANCH   1   2
ATOM      2  CG  HIS A   1       2.094   8.716  17.719  0.00  0.00    +0.082 A 
ATOM      3  ND1 HIS A   1       2.436   7.809  18.702  0.00  0.00    -0.227 NA
ATOM      4  CE1 HIS A   1       2.371   8.397  19.884  0.00  0.00    +0.199 A 
ATOM      5  NE2 HIS A   1       1.994   9.650  19.706  0.00  0.00    -0.221 NA
ATOM      6  CD2 HIS A   1       1.811   9.876  18.360  0.00  0.00    +0.115 A 
ENDBRANCH   1   2
BRANCH   1   7
ATOM      7  CA  HIS A   1       3.377   8.594  15.529  0.00  0.00    +0.139 C 
BRANCH   7   8
ATOM      8  N   HIS A   1       4.250   7.412  15.599  0.00  0.00    -0.239 NA
ATOM      9  H   HIS A   1       3.989   6.617  16.216  0.00  0.00    +0.142 HD
ENDBRANCH   7   8
BRANCH   7  10
ATOM     10  C   HIS A   1       4.041   9.871  16.063  0.00  0.00    +0.224 C 
ATOM     11  O   HIS A   1       3.528  10.979  15.857  0.00  0.00    -0.287 OA
ENDBRANCH   7  10
ENDBRANCH   1   7
TORSDOF 4
REMARK  Name = ../refined-set-2016/2vvu/2vvu_pocket.pdb
REMARK  219 active torsions:
REMARK  status: ('A' for Active; 'I' for Inactive)
REMARK    1  A    between atoms: _1  and  _5
REMARK    2  A    between atoms: _5  and  _6
REMARK    3  A    between atoms: _5  and  _8
REMARK    4  A    between atoms: _8  and  _9
REMARK    5  A    between atoms: _12  and  _14
REMARK    6  A    between atoms: _14  and  _15
REMARK    7  A    between atoms: _14  and  _17
REMARK    8  A    between atoms: _20  and  _22
REMARK    9  A    between atoms: _22  and  _23
REMARK   10  A    between atoms: _22  and  _25
REMARK   11  A    between atoms: _25  and  _26
REMARK   12  A    between atoms: _31  and  _33
REMARK   13  A    between atoms: _33  and  _34
REMARK   14  A    between atoms: _33  and  _36
REMARK   15  A    between atoms: _36  and  _37
REMARK   16  A    between atoms: _37  and  _38
REMARK   17  A    between atoms: _43  and  _45
REMARK   18  A    between atoms: _45  and  _46
REMARK   19  A    between atoms: _45  and  _48
REMARK   20  A    between atoms: _48  and  _49
REMARK   21  A    between atoms: _52  and  _54
REMARK   22  A    between atoms: _54  and  _55
REMARK   23  A    between atoms: _54  and  _57
REMARK   24  A    between atoms: _57  and  _58
REMARK   25  A    between atoms: _58  and  _59
REMARK   26  A    between atoms: _59  and  _60
REMARK   27  A    between atoms: _60  and  _61
REMARK   28  A    between atoms: _65  and  _67
REMARK   29  A    between atoms: _67  and  _68
REMARK   30  A    between atoms: _67  and  _70
REMARK   31  A    between atoms: _70  and  _71
REMARK   32  A    between atoms: _71  and  _72
REMARK   33  A    between atoms: _75  and  _77
REMARK   34  A    between atoms: _77  and  _78
REMARK   35  A    between atoms: _77  and  _80
REMARK   36  A    between atoms: _80  and  _81
REMARK   37  A    between atoms: _84  and  _86
REMARK   38  A    between atoms: _86  and  _87
REMARK   39  A    between atoms: _86  and  _89
REMARK   40  A    between atoms: _89  and  _90
REMARK   41  A    between atoms: _95  and  _96
REMARK   42  A    between atoms: _98  and  _100
REMARK   43  A    between atoms: _100  and  _101
REMARK   44  A    between atoms: _100  and  _103
REMARK   45  A    between atoms: _103  and  _104
REMARK   46  A    between atoms: _107  and  _109
REMARK   47  A    between atoms: _109  and  _110
REMARK   48  A    between atoms: _109  and  _112
REMARK   49  A    between atoms: _112  and  _113
REMARK   50  A    between atoms: _116  and  _118
REMARK   51  A    between atoms: _118  and  _119
REMARK   52  A    between atoms: _118  and  _121
REMARK   53  A    between atoms: _124  and  _126
REMARK   54  A    between atoms: _126  and  _127
REMARK   55  A    between atoms: _126  and  _129
REMARK   56  A    between atoms: _129  and  _130
REMARK   57  A    between atoms: _130  and  _131
REMARK   58  A    between atoms: _131  and  _132
REMARK   59  A    between atoms: _141  and  _143
REMARK   60  A    between atoms: _143  and  _144
REMARK   61  A    between atoms: _143  and  _146
REMARK   62  A    between atoms: _146  and  _147
REMARK   63  A    between atoms: _152  and  _154
REMARK   64  A    between atoms: _154  and  _155
REMARK   65  A    between atoms: _154  and  _157
REMARK   66  A    between atoms: _157  and  _158
REMARK   67  A    between atoms: _158  and  _159
REMARK   68  A    between atoms: _162  and  _164
REMARK   69  A    between atoms: _164  and  _165
REMARK   70  A    between atoms: _164  and  _167
REMARK   71  A    between atoms: _167  and  _168
REMARK   72  A    between atoms: _168  and  _169
REMARK   73  A    between atoms: _169  and  _170
REMARK   74  A    between atoms: _170  and  _171
REMARK   75  A    between atoms: _175  and  _177
REMARK   76  A    between atoms: _177  and  _178
REMARK   77  A    between atoms: _177  and  _180
REMARK   78  A    between atoms: _183  and  _185
REMARK   79  A    between atoms: _185  and  _186
REMARK   80  A    between atoms: _185  and  _188
REMARK   81  A    between atoms: _188  and  _189
REMARK   82  A    between atoms: _191  and  _193
REMARK   83  A    between atoms: _193  and  _194
REMARK   84  A    between atoms: _193  and  _196
REMARK   85  A    between atoms: _196  and  _197
REMARK   86  A    between atoms: _199  and  _201
REMARK   87  A    between atoms: _201  and  _202
REMARK   88  A    between atoms: _201  and  _204
REMARK   89  A    between atoms: _204  and  _205
REMARK   90  A    between atoms: _211  and  _213
REMARK   91  A    between atoms: _213  and  _214
REMARK   92  A    between atoms: _213  and  _216
REMARK   93  A    between atoms: _216  and  _217
REMARK   94  A    between atoms: _220  and  _222
REMARK   95  A    between atoms: _222  and  _223
REMARK   96  A    between atoms: _222  and  _225
REMARK   97  A    between atoms: _225  and  _226
REMARK   98  A    between atoms: _229  and  _231
REMARK   99  A    between atoms: _231  and  _232
REMARK  100  A    between atoms: _231  and  _234
REMARK  101  A    between atoms: _234  and  _235
REMARK  102  A    between atoms: _238  and  _240
REMARK  103  A    between atoms: _240  and  _241
REMARK  104  A    between atoms: _240  and  _243
REMARK  105  A    between atoms: _243  and  _244
REMARK  106  A    between atoms: _244  and  _245
REMARK  107  A    between atoms: _247  and  _249
REMARK  108  A    between atoms: _249  and  _250
REMARK  109  A    between atoms: _249  and  _252
REMARK  110  A    between atoms: _252  and  _253
REMARK  111  A    between atoms: _259  and  _261
REMARK  112  A    between atoms: _261  and  _262
REMARK  113  A    between atoms: _261  and  _264
REMARK  114  A    between atoms: _266  and  _268
REMARK  115  A    between atoms: _268  and  _269
REMARK  116  A    between atoms: _272  and  _274
REMARK  117  A    between atoms: _274  and  _275
REMARK  118  A    between atoms: _277  and  _279
REMARK  119  A    between atoms: _279  and  _280
REMARK  120  A    between atoms: _279  and  _282
REMARK  121  A    between atoms: _282  and  _283
REMARK  122  A    between atoms: _283  and  _284
REMARK  123  A    between atoms: _287  and  _289
REMARK  124  A    between atoms: _289  and  _290
REMARK  125  A    between atoms: _289  and  _292
REMARK  126  A    between atoms: _292  and  _293
REMARK  127  A    between atoms: _296  and  _298
REMARK  128  A    between atoms: _298  and  _299
REMARK  129  A    between atoms: _302  and  _304
REMARK  130  A    between atoms: _304  and  _305
REMARK  131  A    between atoms: _304  and  _307
REMARK  132  A    between atoms: _307  and  _308
REMARK  133  A    between atoms: _308  and  _431
REMARK  134  A    between atoms: _309  and  _311
REMARK  135  A    between atoms: _311  and  _312
REMARK  136  A    between atoms: _311  and  _314
REMARK  137  A    between atoms: _314  and  _315
REMARK  138  A    between atoms: _315  and  _316
REMARK  139  A    between atoms: _321  and  _323
REMARK  140  A    between atoms: _323  and  _324
REMARK  141  A    between atoms: _326  and  _328
REMARK  142  A    between atoms: _328  and  _329
REMARK  143  A    between atoms: _328  and  _331
REMARK  144  A    between atoms: _331  and  _332
REMARK  145  A    between atoms: _335  and  _337
REMARK  146  A    between atoms: _337  and  _338
REMARK  147  A    between atoms: _337  and  _340
REMARK  148  A    between atoms: _340  and  _341
REMARK  149  A    between atoms: _343  and  _345
REMARK  150  A    between atoms: _345  and  _346
REMARK  151  A    between atoms: _348  and  _350
REMARK  152  A    between atoms: _350  and  _351
REMARK  153  A    between atoms: _353  and  _355
REMARK  154  A    between atoms: _355  and  _356
REMARK  155  A    between atoms: _355  and  _358
REMARK  156  A    between atoms: _358  and  _359
REMARK  157  A    between atoms: _364  and  _366
REMARK  158  A    between atoms: _366  and  _367
REMARK  159  A    between atoms: _366  and  _369
REMARK  160  A    between atoms: _369  and  _370
REMARK  161  A    between atoms: _373  and  _375
REMARK  162  A    between atoms: _375  and  _376
REMARK  163  A    between atoms: _375  and  _378
REMARK  164  A    between atoms: _381  and  _383
REMARK  165  A    between atoms: _383  and  _384
REMARK  166  A    between atoms: _383  and  _386
REMARK  167  A    between atoms: _386  and  _387
REMARK  168  A    between atoms: _389  and  _391
REMARK  169  A    between atoms: _391  and  _392
REMARK  170  A    between atoms: _391  and  _394
REMARK  171  A    between atoms: _394  and  _395
REMARK  172  A    between atoms: _405  and  _407
REMARK  173  A    between atoms: _407  and  _408
REMARK  174  A    between atoms: _410  and  _412
REMARK  175  A    between atoms: _412  and  _413
REMARK  176  A    between atoms: _412  and  _415
REMARK  177  A    between atoms: _415  and  _416
REMARK  178  A    between atoms: _416  and  _417
REMARK  179  A    between atoms: _420  and  _422
REMARK  180  A    between atoms: _422  and  _423
REMARK  181  A    between atoms: _425  and  _427
REMARK  182  A    between atoms: _427  and  _428
REMARK  183  A    between atoms: _427  and  _430
REMARK  184  A    between atoms: _430  and  _431
REMARK  185  A    between atoms: _432  and  _434
REMARK  186  A    between atoms: _434  and  _435
REMARK  187  A    between atoms: _438  and  _440
REMARK  188  A    between atoms: _440  and  _441
REMARK  189  A    between atoms: _440  and  _443
REMARK  190  A    between atoms: _443  and  _444
REMARK  191  A    between atoms: _444  and  _445
REMARK  192  A    between atoms: _445  and  _446
REMARK  193  A    between atoms: _455  and  _457
REMARK  194  A    between atoms: _457  and  _458
REMARK  195  A    between atoms: _457  and  _460
REMARK  196  A    between atoms: _460  and  _461
REMARK  197  A    between atoms: _461  and  _462
REMARK  198  A    between atoms: _462  and  _463
REMARK  199  A    between atoms: _463  and  _464
REMARK  200  A    between atoms: _468  and  _470
REMARK  201  A    between atoms: _470  and  _471
REMARK  202  A    between atoms: _470  and  _473
REMARK  203  A    between atoms: _473  and  _474
REMARK  204  A    between atoms: _479  and  _480
REMARK  205  A    between atoms: _482  and  _484
REMARK  206  A    between atoms: _484  and  _485
REMARK  207  A    between atoms: _487  and  _489
REMARK  208  A    between atoms: _489  and  _490
REMARK  209  A    between atoms: _489  and  _492
REMARK  210  A    between atoms: _492  and  _493
REMARK  211  A    between atoms: _496  and  _498
REMARK  212  A    between atoms: _498  and  _499
REMARK  213  A    between atoms: _498  and  _501
REMARK  214  A    between atoms: _501  and  _502
REMARK  215  A    between atoms: _507  and  _508
REMARK  216  A    between atoms: _510  and  _512
REMARK  217  A    between atoms: _512  and  _513
REMARK  218  A    between atoms: _512  and  _515
REMARK  219  A    between atoms: _515  and  _516
REMARK                            x       y       z     vdW  Elec       q    Type
REMARK                         _______ _______ _______ _____ _____    ______ ____
ROOT
ATOM      1  CB  GLN A   1       4.030  15.393  16.557  0.00  0.00    +0.035 C 
ENDROOT
BRANCH   1   2
ATOM      2  CA  GLN A   1       4.442  15.849  15.154  0.00  0.00    +0.134 C 
BRANCH   2   3
ATOM      3  N   GLN A   1       4.707  14.678  14.320  0.00  0.00    -0.239 NA
ATOM      4  H   GLN A   1       4.953  13.780  14.783  0.00  0.00    +0.142 HD
ENDBRANCH   2   3
BRANCH   2   5
ATOM      5  C   GLN A   1       5.615  16.838  15.218  0.00  0.00    +0.224 C 
ATOM      6  O   GLN A   1       5.542  17.862  15.899  0.00  0.00    -0.287 OA
ENDBRANCH   2   5
ENDBRANCH   1   2
BRANCH   1   7
ATOM      7  CG  GLN A   1       2.971  14.296  16.540  0.00  0.00    +0.087 C 
BRANCH   7   8
ATOM      8  CD  GLN A   1       2.686  13.754  17.918  0.00  0.00    +0.219 C 
ATOM      9  OE1 GLN A   1       3.480  13.934  18.832  0.00  0.00    -0.275 OA
ATOM     10  NE2 GLN A   1       1.552  13.087  18.076  0.00  0.00    -0.329 N 
ATOM     11 HE21 GLN A   1       1.307  12.692  19.006  0.00  0.00    +0.145 HD
ATOM     12 HE22 GLN A   1       0.907  12.959  17.270  0.00  0.00    +0.145 HD
ENDBRANCH   7   8
ENDBRANCH   1   7
TORSDOF 5
REMARK  Name = ../refined-set-2016/2vvu/2vvu_pocket.pdb
REMARK  219 active torsions:
REMARK  status: ('A' for Active; 'I' for Inactive)
REMARK    1  A    between atoms: _1  and  _5
REMARK    2  A    between atoms: _5  and  _6
REMARK    3  A    between atoms: _5  and  _8
REMARK    4  A    between atoms: _8  and  _9
REMARK    5  A    between atoms: _12  and  _14
REMARK    6  A    between atoms: _14  and  _15
REMARK    7  A    between atoms: _14  and  _17
REMARK    8  A    between atoms: _20  and  _22
REMARK    9  A    between atoms: _22  and  _23
REMARK   10  A    between atoms: _22  and  _25
REMARK   11  A    between atoms: _25  and  _26
REMARK   12  A    between atoms: _31  and  _33
REMARK   13  A    between atoms: _33  and  _34
REMARK   14  A    between atoms: _33  and  _36
REMARK   15  A    between atoms: _36  and  _37
REMARK   16  A    between atoms: _37  and  _38
REMARK   17  A    between atoms: _43  and  _45
REMARK   18  A    between atoms: _45  and  _46
REMARK   19  A    between atoms: _45  and  _48
REMARK   20  A    between atoms: _48  and  _49
REMARK   21  A    between atoms: _52  and  _54
REMARK   22  A    between atoms: _54  and  _55
REMARK   23  A    between atoms: _54  and  _57
REMARK   24  A    between atoms: _57  and  _58
REMARK   25  A    between atoms: _58  and  _59
REMARK   26  A    between atoms: _59  and  _60
REMARK   27  A    between atoms: _60  and  _61
REMARK   28  A    between atoms: _65  and  _67
REMARK   29  A    between atoms: _67  and  _68
REMARK   30  A    between atoms: _67  and  _70
REMARK   31  A    between atoms: _70  and  _71
REMARK   32  A    between atoms: _71  and  _72
REMARK   33  A    between atoms: _75  and  _77
REMARK   34  A    between atoms: _77  and  _78
REMARK   35  A    between atoms: _77  and  _80
REMARK   36  A    between atoms: _80  and  _81
REMARK   37  A    between atoms: _84  and  _86
REMARK   38  A    between atoms: _86  and  _87
REMARK   39  A    between atoms: _86  and  _89
REMARK   40  A    between atoms: _89  and  _90
REMARK   41  A    between atoms: _95  and  _96
REMARK   42  A    between atoms: _98  and  _100
REMARK   43  A    between atoms: _100  and  _101
REMARK   44  A    between atoms: _100  and  _103
REMARK   45  A    between atoms: _103  and  _104
REMARK   46  A    between atoms: _107  and  _109
REMARK   47  A    between atoms: _109  and  _110
REMARK   48  A    between atoms: _109  and  _112
REMARK   49  A    between atoms: _112  and  _113
REMARK   50  A    between atoms: _116  and  _118
REMARK   51  A    between atoms: _118  and  _119
REMARK   52  A    between atoms: _118  and  _121
REMARK   53  A    between atoms: _124  and  _126
REMARK   54  A    between atoms: _126  and  _127
REMARK   55  A    between atoms: _126  and  _129
REMARK   56  A    between atoms: _129  and  _130
REMARK   57  A    between atoms: _130  and  _131
REMARK   58  A    between atoms: _131  and  _132
REMARK   59  A    between atoms: _141  and  _143
REMARK   60  A    between atoms: _143  and  _144
REMARK   61  A    between atoms: _143  and  _146
REMARK   62  A    between atoms: _146  and  _147
REMARK   63  A    between atoms: _152  and  _154
REMARK   64  A    between atoms: _154  and  _155
REMARK   65  A    between atoms: _154  and  _157
REMARK   66  A    between atoms: _157  and  _158
REMARK   67  A    between atoms: _158  and  _159
REMARK   68  A    between atoms: _162  and  _164
REMARK   69  A    between atoms: _164  and  _165
REMARK   70  A    between atoms: _164  and  _167
REMARK   71  A    between atoms: _167  and  _168
REMARK   72  A    between atoms: _168  and  _169
REMARK   73  A    between atoms: _169  and  _170
REMARK   74  A    between atoms: _170  and  _171
REMARK   75  A    between atoms: _175  and  _177
REMARK   76  A    between atoms: _177  and  _178
REMARK   77  A    between atoms: _177  and  _180
REMARK   78  A    between atoms: _183  and  _185
REMARK   79  A    between atoms: _185  and  _186
REMARK   80  A    between atoms: _185  and  _188
REMARK   81  A    between atoms: _188  and  _189
REMARK   82  A    between atoms: _191  and  _193
REMARK   83  A    between atoms: _193  and  _194
REMARK   84  A    between atoms: _193  and  _196
REMARK   85  A    between atoms: _196  and  _197
REMARK   86  A    between atoms: _199  and  _201
REMARK   87  A    between atoms: _201  and  _202
REMARK   88  A    between atoms: _201  and  _204
REMARK   89  A    between atoms: _204  and  _205
REMARK   90  A    between atoms: _211  and  _213
REMARK   91  A    between atoms: _213  and  _214
REMARK   92  A    between atoms: _213  and  _216
REMARK   93  A    between atoms: _216  and  _217
REMARK   94  A    between atoms: _220  and  _222
REMARK   95  A    between atoms: _222  and  _223
REMARK   96  A    between atoms: _222  and  _225
REMARK   97  A    between atoms: _225  and  _226
REMARK   98  A    between atoms: _229  and  _231
REMARK   99  A    between atoms: _231  and  _232
REMARK  100  A    between atoms: _231  and  _234
REMARK  101  A    between atoms: _234  and  _235
REMARK  102  A    between atoms: _238  and  _240
REMARK  103  A    between atoms: _240  and  _241
REMARK  104  A    between atoms: _240  and  _243
REMARK  105  A    between atoms: _243  and  _244
REMARK  106  A    between atoms: _244  and  _245
REMARK  107  A    between atoms: _247  and  _249
REMARK  108  A    between atoms: _249  and  _250
REMARK  109  A    between atoms: _249  and  _252
REMARK  110  A    between atoms: _252  and  _253
REMARK  111  A    between atoms: _259  and  _261
REMARK  112  A    between atoms: _261  and  _262
REMARK  113  A    between atoms: _261  and  _264
REMARK  114  A    between atoms: _266  and  _268
REMARK  115  A    between atoms: _268  and  _269
REMARK  116  A    between atoms: _272  and  _274
REMARK  117  A    between atoms: _274  and  _275
REMARK  118  A    between atoms: _277  and  _279
REMARK  119  A    between atoms: _279  and  _280
REMARK  120  A    between atoms: _279  and  _282
REMARK  121  A    between atoms: _282  and  _283
REMARK  122  A    between atoms: _283  and  _284
REMARK  123  A    between atoms: _287  and  _289
REMARK  124  A    between atoms: _289  and  _290
REMARK  125  A    between atoms: _289  and  _292
REMARK  126  A    between atoms: _292  and  _293
REMARK  127  A    between atoms: _296  and  _298
REMARK  128  A    between atoms: _298  and  _299
REMARK  129  A    between atoms: _302  and  _304
REMARK  130  A    between atoms: _304  and  _305
REMARK  131  A    between atoms: _304  and  _307
REMARK  132  A    between atoms: _307  and  _308
REMARK  133  A    between atoms: _308  and  _431
REMARK  134  A    between atoms: _309  and  _311
REMARK  135  A    between atoms: _311  and  _312
REMARK  136  A    between atoms: _311  and  _314
REMARK  137  A    between atoms: _314  and  _315
REMARK  138  A    between atoms: _315  and  _316
REMARK  139  A    between atoms: _321  and  _323
REMARK  140  A    between atoms: _323  and  _324
REMARK  141  A    between atoms: _326  and  _328
REMARK  142  A    between atoms: _328  and  _329
REMARK  143  A    between atoms: _328  and  _331
REMARK  144  A    between atoms: _331  and  _332
REMARK  145  A    between atoms: _335  and  _337
REMARK  146  A    between atoms: _337  and  _338
REMARK  147  A    between atoms: _337  and  _340
REMARK  148  A    between atoms: _340  and  _341
REMARK  149  A    between atoms: _343  and  _345
REMARK  150  A    between atoms: _345  and  _346
REMARK  151  A    between atoms: _348  and  _350
REMARK  152  A    between atoms: _350  and  _351
REMARK  153  A    between atoms: _353  and  _355
REMARK  154  A    between atoms: _355  and  _356
REMARK  155  A    between atoms: _355  and  _358
REMARK  156  A    between atoms: _358  and  _359
REMARK  157  A    between atoms: _364  and  _366
REMARK  158  A    between atoms: _366  and  _367
REMARK  159  A    between atoms: _366  and  _369
REMARK  160  A    between atoms: _369  and  _370
REMARK  161  A    between atoms: _373  and  _375
REMARK  162  A    between atoms: _375  and  _376
REMARK  163  A    between atoms: _375  and  _378
REMARK  164  A    between atoms: _381  and  _383
REMARK  165  A    between atoms: _383  and  _384
REMARK  166  A    between atoms: _383  and  _386
REMARK  167  A    between atoms: _386  and  _387
REMARK  168  A    between atoms: _389  and  _391
REMARK  169  A    between atoms: _391  and  _392
REMARK  170  A    between atoms: _391  and  _394
REMARK  171  A    between atoms: _394  and  _395
REMARK  172  A    between atoms: _405  and  _407
REMARK  173  A    between atoms: _407  and  _408
REMARK  174  A    between atoms: _410  and  _412
REMARK  175  A    between atoms: _412  and  _413
REMARK  176  A    between atoms: _412  and  _415
REMARK  177  A    between atoms: _415  and  _416
REMARK  178  A    between atoms: _416  and  _417
REMARK  179  A    between atoms: _420  and  _422
REMARK  180  A    between atoms: _422  and  _423
REMARK  181  A    between atoms: _425  and  _427
REMARK  182  A    between atoms: _427  and  _428
REMARK  183  A    between atoms: _427  and  _430
REMARK  184  A    between atoms: _430  and  _431
REMARK  185  A    between atoms: _432  and  _434
REMARK  186  A    between atoms: _434  and  _435
REMARK  187  A    between atoms: _438  and  _440
REMARK  188  A    between atoms: _440  and  _441
REMARK  189  A    between atoms: _440  and  _443
REMARK  190  A    between atoms: _443  and  _444
REMARK  191  A    between atoms: _444  and  _445
REMARK  192  A    between atoms: _445  and  _446
REMARK  193  A    between atoms: _455  and  _457
REMARK  194  A    between atoms: _457  and  _458
REMARK  195  A    between atoms: _457  and  _460
REMARK  196  A    between atoms: _460  and  _461
REMARK  197  A    between atoms: _461  and  _462
REMARK  198  A    between atoms: _462  and  _463
REMARK  199  A    between atoms: _463  and  _464
REMARK  200  A    between atoms: _468  and  _470
REMARK  201  A    between atoms: _470  and  _471
REMARK  202  A    between atoms: _470  and  _473
REMARK  203  A    between atoms: _473  and  _474
REMARK  204  A    between atoms: _479  and  _480
REMARK  205  A    between atoms: _482  and  _484
REMARK  206  A    between atoms: _484  and  _485
REMARK  207  A    between atoms: _487  and  _489
REMARK  208  A    between atoms: _489  and  _490
REMARK  209  A    between atoms: _489  and  _492
REMARK  210  A    between atoms: _492  and  _493
REMARK  211  A    between atoms: _496  and  _498
REMARK  212  A    between atoms: _498  and  _499
REMARK  213  A    between atoms: _498  and  _501
REMARK  214  A    between atoms: _501  and  _502
REMARK  215  A    between atoms: _507  and  _508
REMARK  216  A    between atoms: _510  and  _512
REMARK  217  A    between atoms: _512  and  _513
REMARK  218  A    between atoms: _512  and  _515
REMARK  219  A    between atoms: _515  and  _516
REMARK                            x       y       z     vdW  Elec       q    Type
REMARK                         _______ _______ _______ _____ _____    ______ ____
ROOT
ATOM      1  C   GLU A   3      -5.816   4.594  12.075  0.00  0.00    +0.241 C 
ATOM      2  O   GLU A   3      -6.865   4.611  12.718  0.00  0.00    -0.273 OA
ATOM      3  N   THR A   4      -4.830   3.726  12.300  0.00  0.00    -0.295 N 
ATOM      4  H   THR A   4      -3.935   3.833  11.781  0.00  0.00    +0.150 HD
ENDROOT
BRANCH   3   5
ATOM      5  CA  THR A   4      -4.969   2.630  13.254  0.00  0.00    +0.176 C 
BRANCH   5   6
ATOM      6  C   THR A   4      -4.111   2.802  14.507  0.00  0.00    +0.243 C 
ATOM      7  O   THR A   4      -4.441   2.256  15.570  0.00  0.00    -0.273 OA
ATOM      8  N   TYR A   5      -3.017   3.554  14.378  0.00  0.00    -0.297 N 
ATOM      9  H   TYR A   5      -2.889   4.102  13.504  0.00  0.00    +0.150 HD
BRANCH   8  10
ATOM     10  CA  TYR A   5      -1.985   3.639  15.422  0.00  0.00    +0.153 C 
BRANCH  10  11
ATOM     11  C   TYR A   5      -1.361   2.283  15.754  0.00  0.00    +0.241 C 
ATOM     12  O   TYR A   5      -0.703   2.115  16.803  0.00  0.00    -0.273 OA
ATOM     13  N   ASP A   6      -1.566   1.319  14.854  0.00  0.00    -0.298 N 
ATOM     14  H   ASP A   6      -2.104   1.536  13.991  0.00  0.00    +0.150 HD
BRANCH  13  15
ATOM     15  CA  ASP A   6      -1.056  -0.025  15.051  0.00  0.00    +0.148 C 
BRANCH  15  16
ATOM     16  C   ASP A   6       0.403  -0.033  14.671  0.00  0.00    +0.227 C 
ATOM     17  O   ASP A   6       0.841   0.820  13.898  0.00  0.00    -0.286 OA
ENDBRANCH  15  16
BRANCH  15  18
ATOM     18  CB  ASP A   6      -1.841  -1.018  14.199  0.00  0.00    +0.142 C 
BRANCH  18  19
ATOM     19  CG  ASP A   6      -1.534  -2.469  14.551  0.00  0.00    +0.367 C 
ATOM     20  OD2 ASP A   6      -0.974  -2.746  15.650  0.00  0.00    -0.246 OA
ATOM     21  OD1 ASP A   6      -1.862  -3.341  13.715  0.00  0.00    -0.246 OA
ENDBRANCH  18  19
ENDBRANCH  15  18
ENDBRANCH  13  15
ENDBRANCH  10  11
BRANCH  10  22
ATOM     22  CB  TYR A   5      -2.549   4.295  16.681  0.00  0.00    +0.055 C 
BRANCH  22  23
ATOM     23  CG  TYR A   5      -2.299   5.776  16.704  0.00  0.00    -0.020 A 
ATOM     24  CD2 TYR A   5      -1.362   6.328  17.570  0.00  0.00    -0.001 A 
ATOM     25  CE2 TYR A   5      -1.114   7.697  17.581  0.00  0.00    +0.036 A 
ATOM     26  CZ  TYR A   5      -1.811   8.524  16.717  0.00  0.00    +0.134 A 
ATOM     27  CE1 TYR A   5      -2.753   7.994  15.852  0.00  0.00    +0.036 A 
ATOM     28  CD1 TYR A   5      -2.985   6.625  15.844  0.00  0.00    -0.001 A 
BRANCH  26  29
ATOM     29  OH  TYR A   5      -1.588   9.883  16.728  0.00  0.00    -0.506 OA
ATOM     30  HH  TYR A   5      -2.167  10.317  16.052  0.00  0.00    +0.292 HD
ENDBRANCH  26  29
ENDBRANCH  22  23
ENDBRANCH  10  22
ENDBRANCH   8  10
ENDBRANCH   5   6
BRANCH   5  31
ATOM     31  CB  THR A   4      -4.597   1.283  12.606  0.00  0.00    +0.137 C 
ATOM     32  CG2 THR A   4      -5.494   1.004  11.411  0.00  0.00    +0.034 C 
BRANCH  31  33
ATOM     33  OG1 THR A   4      -3.232   1.324  12.168  0.00  0.00    -0.382 OA
ATOM     34  HG1 THR A   4      -2.994   0.458  11.752  0.00  0.00    +0.210 HD
ENDBRANCH  31  33
ENDBRANCH   5  31
ENDBRANCH   3   5
BRANCH   1  35
ATOM     35  CA  GLU A   3      -5.586   5.606  10.961  0.00  0.00    +0.149 C 
BRANCH  35  38
ATOM     36  C   LYS A   2      -3.688   6.783  11.971  0.00  0.00    +0.241 C 
ATOM     37  O   LYS A   2      -4.282   7.015  13.030  0.00  0.00    -0.273 OA
ATOM     38  N   GLU A   3      -4.220   6.106  10.955  0.00  0.00    -0.297 N 
ATOM     39  H   GLU A   3      -3.631   5.926  10.117  0.00  0.00    +0.150 HD
BRANCH  36  40
ATOM     40  CA  LYS A   2      -2.259   7.258  11.758  0.00  0.00    +0.149 C 
BRANCH  40  43
ATOM     41  C   THR A   1      -1.299   5.044  11.239  0.00  0.00    +0.241 C 
ATOM     42  O   THR A   1      -1.710   4.523  12.274  0.00  0.00    -0.274 OA
ATOM     43  N   LYS A   2      -1.522   6.317  10.908  0.00  0.00    -0.297 N 
ATOM     44  H   LYS A   2      -1.153   6.661   9.998  0.00  0.00    +0.150 HD
BRANCH  41  45
ATOM     45  CA  THR A   1      -0.526   4.223  10.213  0.00  0.00    +0.172 C 
BRANCH  45  46
ATOM     46  CB  THR A   1      -1.557   3.711   9.190  0.00  0.00    +0.135 C 
ATOM     47  CG2 THR A   1      -2.824   3.267   9.893  0.00  0.00    +0.034 C 
BRANCH  46  48
ATOM     48  OG1 THR A   1      -1.903   4.785   8.305  0.00  0.00    -0.383 OA
ATOM     49  HG1 THR A   1      -2.291   5.530   8.828  0.00  0.00    +0.210 HD
ENDBRANCH  46  48
ENDBRANCH  45  46
BRANCH  45  50
ATOM     50  N   THR A   1       0.287   3.152  10.806  0.00  0.00    -0.236 NA
ATOM     51  H   THR A   1      -0.069   2.625  11.629  0.00  0.00    +0.142 HD
ENDBRANCH  45  50
ENDBRANCH  41  45
ENDBRANCH  40  43
BRANCH  40  52
ATOM     52  CB  LYS A   2      -2.254   8.660  11.135  0.00  0.00    +0.029 C 
BRANCH  52  53
ATOM     53  CG  LYS A   2      -2.708   9.769  12.075  0.00  0.00    +0.000 C 
BRANCH  53  54
ATOM     54  CD  LYS A   2      -2.514  11.141  11.449  0.00  0.00    -0.024 C 
BRANCH  54  55
ATOM     55  CE  LYS A   2      -1.042  11.515  11.367  0.00  0.00    -0.086 C 
BRANCH  55  56
ATOM     56  NZ  LYS A   2      -0.832  12.814  10.670  0.00  0.00    +0.380 N 
ATOM     57  HZ1 LYS A   2      -1.330  13.567  11.186  0.00  0.00    -0.089 HD
ATOM     58  HZ2 LYS A   2       0.185  13.028  10.638  0.00  0.00    -0.089 HD
ATOM     59  HZ3 LYS A   2      -1.205  12.751   9.701  0.00  0.00    -0.089 HD
ENDBRANCH  55  56
ENDBRANCH  54  55
ENDBRANCH  53  54
ENDBRANCH  52  53
ENDBRANCH  40  52
ENDBRANCH  36  40
ENDBRANCH  35  38
BRANCH  35  60
ATOM     60  CB  GLU A   3      -5.933   4.975   9.599  0.00  0.00    +0.041 C 
BRANCH  60  61
ATOM     61  CG  GLU A   3      -6.223   5.991   8.487  0.00  0.00    +0.116 C 
BRANCH  61  62
ATOM     62  CD  GLU A   3      -5.094   6.989   8.281  0.00  0.00    +0.365 C 
ATOM     63  OE2 GLU A   3      -5.350   8.215   8.341  0.00  0.00    -0.246 OA
ATOM     64  OE1 GLU A   3      -3.952   6.547   8.050  0.00  0.00    -0.246 OA
ENDBRANCH  61  62
ENDBRANCH  60  61
ENDBRANCH  35  60
ENDBRANCH   1  35
TORSDOF 29
REMARK  Name = ../refined-set-2016/2vvu/2vvu_pocket.pdb
REMARK  219 active torsions:
REMARK  status: ('A' for Active; 'I' for Inactive)
REMARK    1  A    between atoms: _1  and  _5
REMARK    2  A    between atoms: _5  and  _6
REMARK    3  A    between atoms: _5  and  _8
REMARK    4  A    between atoms: _8  and  _9
REMARK    5  A    between atoms: _12  and  _14
REMARK    6  A    between atoms: _14  and  _15
REMARK    7  A    between atoms: _14  and  _17
REMARK    8  A    between atoms: _20  and  _22
REMARK    9  A    between atoms: _22  and  _23
REMARK   10  A    between atoms: _22  and  _25
REMARK   11  A    between atoms: _25  and  _26
REMARK   12  A    between atoms: _31  and  _33
REMARK   13  A    between atoms: _33  and  _34
REMARK   14  A    between atoms: _33  and  _36
REMARK   15  A    between atoms: _36  and  _37
REMARK   16  A    between atoms: _37  and  _38
REMARK   17  A    between atoms: _43  and  _45
REMARK   18  A    between atoms: _45  and  _46
REMARK   19  A    between atoms: _45  and  _48
REMARK   20  A    between atoms: _48  and  _49
REMARK   21  A    between atoms: _52  and  _54
REMARK   22  A    between atoms: _54  and  _55
REMARK   23  A    between atoms: _54  and  _57
REMARK   24  A    between atoms: _57  and  _58
REMARK   25  A    between atoms: _58  and  _59
REMARK   26  A    between atoms: _59  and  _60
REMARK   27  A    between atoms: _60  and  _61
REMARK   28  A    between atoms: _65  and  _67
REMARK   29  A    between atoms: _67  and  _68
REMARK   30  A    between atoms: _67  and  _70
REMARK   31  A    between atoms: _70  and  _71
REMARK   32  A    between atoms: _71  and  _72
REMARK   33  A    between atoms: _75  and  _77
REMARK   34  A    between atoms: _77  and  _78
REMARK   35  A    between atoms: _77  and  _80
REMARK   36  A    between atoms: _80  and  _81
REMARK   37  A    between atoms: _84  and  _86
REMARK   38  A    between atoms: _86  and  _87
REMARK   39  A    between atoms: _86  and  _89
REMARK   40  A    between atoms: _89  and  _90
REMARK   41  A    between atoms: _95  and  _96
REMARK   42  A    between atoms: _98  and  _100
REMARK   43  A    between atoms: _100  and  _101
REMARK   44  A    between atoms: _100  and  _103
REMARK   45  A    between atoms: _103  and  _104
REMARK   46  A    between atoms: _107  and  _109
REMARK   47  A    between atoms: _109  and  _110
REMARK   48  A    between atoms: _109  and  _112
REMARK   49  A    between atoms: _112  and  _113
REMARK   50  A    between atoms: _116  and  _118
REMARK   51  A    between atoms: _118  and  _119
REMARK   52  A    between atoms: _118  and  _121
REMARK   53  A    between atoms: _124  and  _126
REMARK   54  A    between atoms: _126  and  _127
REMARK   55  A    between atoms: _126  and  _129
REMARK   56  A    between atoms: _129  and  _130
REMARK   57  A    between atoms: _130  and  _131
REMARK   58  A    between atoms: _131  and  _132
REMARK   59  A    between atoms: _141  and  _143
REMARK   60  A    between atoms: _143  and  _144
REMARK   61  A    between atoms: _143  and  _146
REMARK   62  A    between atoms: _146  and  _147
REMARK   63  A    between atoms: _152  and  _154
REMARK   64  A    between atoms: _154  and  _155
REMARK   65  A    between atoms: _154  and  _157
REMARK   66  A    between atoms: _157  and  _158
REMARK   67  A    between atoms: _158  and  _159
REMARK   68  A    between atoms: _162  and  _164
REMARK   69  A    between atoms: _164  and  _165
REMARK   70  A    between atoms: _164  and  _167
REMARK   71  A    between atoms: _167  and  _168
REMARK   72  A    between atoms: _168  and  _169
REMARK   73  A    between atoms: _169  and  _170
REMARK   74  A    between atoms: _170  and  _171
REMARK   75  A    between atoms: _175  and  _177
REMARK   76  A    between atoms: _177  and  _178
REMARK   77  A    between atoms: _177  and  _180
REMARK   78  A    between atoms: _183  and  _185
REMARK   79  A    between atoms: _185  and  _186
REMARK   80  A    between atoms: _185  and  _188
REMARK   81  A    between atoms: _188  and  _189
REMARK   82  A    between atoms: _191  and  _193
REMARK   83  A    between atoms: _193  and  _194
REMARK   84  A    between atoms: _193  and  _196
REMARK   85  A    between atoms: _196  and  _197
REMARK   86  A    between atoms: _199  and  _201
REMARK   87  A    between atoms: _201  and  _202
REMARK   88  A    between atoms: _201  and  _204
REMARK   89  A    between atoms: _204  and  _205
REMARK   90  A    between atoms: _211  and  _213
REMARK   91  A    between atoms: _213  and  _214
REMARK   92  A    between atoms: _213  and  _216
REMARK   93  A    between atoms: _216  and  _217
REMARK   94  A    between atoms: _220  and  _222
REMARK   95  A    between atoms: _222  and  _223
REMARK   96  A    between atoms: _222  and  _225
REMARK   97  A    between atoms: _225  and  _226
REMARK   98  A    between atoms: _229  and  _231
REMARK   99  A    between atoms: _231  and  _232
REMARK  100  A    between atoms: _231  and  _234
REMARK  101  A    between atoms: _234  and  _235
REMARK  102  A    between atoms: _238  and  _240
REMARK  103  A    between atoms: _240  and  _241
REMARK  104  A    between atoms: _240  and  _243
REMARK  105  A    between atoms: _243  and  _244
REMARK  106  A    between atoms: _244  and  _245
REMARK  107  A    between atoms: _247  and  _249
REMARK  108  A    between atoms: _249  and  _250
REMARK  109  A    between atoms: _249  and  _252
REMARK  110  A    between atoms: _252  and  _253
REMARK  111  A    between atoms: _259  and  _261
REMARK  112  A    between atoms: _261  and  _262
REMARK  113  A    between atoms: _261  and  _264
REMARK  114  A    between atoms: _266  and  _268
REMARK  115  A    between atoms: _268  and  _269
REMARK  116  A    between atoms: _272  and  _274
REMARK  117  A    between atoms: _274  and  _275
REMARK  118  A    between atoms: _277  and  _279
REMARK  119  A    between atoms: _279  and  _280
REMARK  120  A    between atoms: _279  and  _282
REMARK  121  A    between atoms: _282  and  _283
REMARK  122  A    between atoms: _283  and  _284
REMARK  123  A    between atoms: _287  and  _289
REMARK  124  A    between atoms: _289  and  _290
REMARK  125  A    between atoms: _289  and  _292
REMARK  126  A    between atoms: _292  and  _293
REMARK  127  A    between atoms: _296  and  _298
REMARK  128  A    between atoms: _298  and  _299
REMARK  129  A    between atoms: _302  and  _304
REMARK  130  A    between atoms: _304  and  _305
REMARK  131  A    between atoms: _304  and  _307
REMARK  132  A    between atoms: _307  and  _308
REMARK  133  A    between atoms: _308  and  _431
REMARK  134  A    between atoms: _309  and  _311
REMARK  135  A    between atoms: _311  and  _312
REMARK  136  A    between atoms: _311  and  _314
REMARK  137  A    between atoms: _314  and  _315
REMARK  138  A    between atoms: _315  and  _316
REMARK  139  A    between atoms: _321  and  _323
REMARK  140  A    between atoms: _323  and  _324
REMARK  141  A    between atoms: _326  and  _328
REMARK  142  A    between atoms: _328  and  _329
REMARK  143  A    between atoms: _328  and  _331
REMARK  144  A    between atoms: _331  and  _332
REMARK  145  A    between atoms: _335  and  _337
REMARK  146  A    between atoms: _337  and  _338
REMARK  147  A    between atoms: _337  and  _340
REMARK  148  A    between atoms: _340  and  _341
REMARK  149  A    between atoms: _343  and  _345
REMARK  150  A    between atoms: _345  and  _346
REMARK  151  A    between atoms: _348  and  _350
REMARK  152  A    between atoms: _350  and  _351
REMARK  153  A    between atoms: _353  and  _355
REMARK  154  A    between atoms: _355  and  _356
REMARK  155  A    between atoms: _355  and  _358
REMARK  156  A    between atoms: _358  and  _359
REMARK  157  A    between atoms: _364  and  _366
REMARK  158  A    between atoms: _366  and  _367
REMARK  159  A    between atoms: _366  and  _369
REMARK  160  A    between atoms: _369  and  _370
REMARK  161  A    between atoms: _373  and  _375
REMARK  162  A    between atoms: _375  and  _376
REMARK  163  A    between atoms: _375  and  _378
REMARK  164  A    between atoms: _381  and  _383
REMARK  165  A    between atoms: _383  and  _384
REMARK  166  A    between atoms: _383  and  _386
REMARK  167  A    between atoms: _386  and  _387
REMARK  168  A    between atoms: _389  and  _391
REMARK  169  A    between atoms: _391  and  _392
REMARK  170  A    between atoms: _391  and  _394
REMARK  171  A    between atoms: _394  and  _395
REMARK  172  A    between atoms: _405  and  _407
REMARK  173  A    between atoms: _407  and  _408
REMARK  174  A    between atoms: _410  and  _412
REMARK  175  A    between atoms: _412  and  _413
REMARK  176  A    between atoms: _412  and  _415
REMARK  177  A    between atoms: _415  and  _416
REMARK  178  A    between atoms: _416  and  _417
REMARK  179  A    between atoms: _420  and  _422
REMARK  180  A    between atoms: _422  and  _423
REMARK  181  A    between atoms: _425  and  _427
REMARK  182  A    between atoms: _427  and  _428
REMARK  183  A    between atoms: _427  and  _430
REMARK  184  A    between atoms: _430  and  _431
REMARK  185  A    between atoms: _432  and  _434
REMARK  186  A    between atoms: _434  and  _435
REMARK  187  A    between atoms: _438  and  _440
REMARK  188  A    between atoms: _440  and  _441
REMARK  189  A    between atoms: _440  and  _443
REMARK  190  A    between atoms: _443  and  _444
REMARK  191  A    between atoms: _444  and  _445
REMARK  192  A    between atoms: _445  and  _446
REMARK  193  A    between atoms: _455  and  _457
REMARK  194  A    between atoms: _457  and  _458
REMARK  195  A    between atoms: _457  and  _460
REMARK  196  A    between atoms: _460  and  _461
REMARK  197  A    between atoms: _461  and  _462
REMARK  198  A    between atoms: _462  and  _463
REMARK  199  A    between atoms: _463  and  _464
REMARK  200  A    between atoms: _468  and  _470
REMARK  201  A    between atoms: _470  and  _471
REMARK  202  A    between atoms: _470  and  _473
REMARK  203  A    between atoms: _473  and  _474
REMARK  204  A    between atoms: _479  and  _480
REMARK  205  A    between atoms: _482  and  _484
REMARK  206  A    between atoms: _484  and  _485
REMARK  207  A    between atoms: _487  and  _489
REMARK  208  A    between atoms: _489  and  _490
REMARK  209  A    between atoms: _489  and  _492
REMARK  210  A    between atoms: _492  and  _493
REMARK  211  A    between atoms: _496  and  _498
REMARK  212  A    between atoms: _498  and  _499
REMARK  213  A    between atoms: _498  and  _501
REMARK  214  A    between atoms: _501  and  _502
REMARK  215  A    between atoms: _507  and  _508
REMARK  216  A    between atoms: _510  and  _512
REMARK  217  A    between atoms: _512  and  _513
REMARK  218  A    between atoms: _512  and  _515
REMARK  219  A    between atoms: _515  and  _516
REMARK                            x       y       z     vdW  Elec       q    Type
REMARK                         _______ _______ _______ _____ _____    ______ ____
ROOT
ATOM      1  CA  ASP A   1       3.395   2.221  16.740  0.00  0.00    +0.144 C 
ENDROOT
BRANCH   1   2
ATOM      2  N   ASP A   1       2.870   0.900  16.427  0.00  0.00    -0.239 NA
ATOM      3  H   ASP A   1       2.242   0.407  17.093  0.00  0.00    +0.142 HD
ENDBRANCH   1   2
BRANCH   1   4
ATOM      4  C   ASP A   1       4.764   2.127  17.379  0.00  0.00    +0.225 C 
ATOM      5  O   ASP A   1       4.916   2.240  18.598  0.00  0.00    -0.287 OA
ENDBRANCH   1   4
BRANCH   1   6
ATOM      6  CB  ASP A   1       2.436   3.058  17.589  0.00  0.00    +0.139 C 
BRANCH   6   7
ATOM      7  CG  ASP A   1       2.808   4.521  17.580  0.00  0.00    +0.367 C 
ATOM      8  OD2 ASP A   1       2.192   5.330  18.305  0.00  0.00    -0.246 OA
ATOM      9  OD1 ASP A   1       3.744   4.858  16.827  0.00  0.00    -0.246 OA
ENDBRANCH   6   7
ENDBRANCH   1   6
TORSDOF 4
REMARK  Name = ../refined-set-2016/2vvu/2vvu_pocket.pdb
REMARK  219 active torsions:
REMARK  status: ('A' for Active; 'I' for Inactive)
REMARK    1  A    between atoms: _1  and  _5
REMARK    2  A    between atoms: _5  and  _6
REMARK    3  A    between atoms: _5  and  _8
REMARK    4  A    between atoms: _8  and  _9
REMARK    5  A    between atoms: _12  and  _14
REMARK    6  A    between atoms: _14  and  _15
REMARK    7  A    between atoms: _14  and  _17
REMARK    8  A    between atoms: _20  and  _22
REMARK    9  A    between atoms: _22  and  _23
REMARK   10  A    between atoms: _22  and  _25
REMARK   11  A    between atoms: _25  and  _26
REMARK   12  A    between atoms: _31  and  _33
REMARK   13  A    between atoms: _33  and  _34
REMARK   14  A    between atoms: _33  and  _36
REMARK   15  A    between atoms: _36  and  _37
REMARK   16  A    between atoms: _37  and  _38
REMARK   17  A    between atoms: _43  and  _45
REMARK   18  A    between atoms: _45  and  _46
REMARK   19  A    between atoms: _45  and  _48
REMARK   20  A    between atoms: _48  and  _49
REMARK   21  A    between atoms: _52  and  _54
REMARK   22  A    between atoms: _54  and  _55
REMARK   23  A    between atoms: _54  and  _57
REMARK   24  A    between atoms: _57  and  _58
REMARK   25  A    between atoms: _58  and  _59
REMARK   26  A    between atoms: _59  and  _60
REMARK   27  A    between atoms: _60  and  _61
REMARK   28  A    between atoms: _65  and  _67
REMARK   29  A    between atoms: _67  and  _68
REMARK   30  A    between atoms: _67  and  _70
REMARK   31  A    between atoms: _70  and  _71
REMARK   32  A    between atoms: _71  and  _72
REMARK   33  A    between atoms: _75  and  _77
REMARK   34  A    between atoms: _77  and  _78
REMARK   35  A    between atoms: _77  and  _80
REMARK   36  A    between atoms: _80  and  _81
REMARK   37  A    between atoms: _84  and  _86
REMARK   38  A    between atoms: _86  and  _87
REMARK   39  A    between atoms: _86  and  _89
REMARK   40  A    between atoms: _89  and  _90
REMARK   41  A    between atoms: _95  and  _96
REMARK   42  A    between atoms: _98  and  _100
REMARK   43  A    between atoms: _100  and  _101
REMARK   44  A    between atoms: _100  and  _103
REMARK   45  A    between atoms: _103  and  _104
REMARK   46  A    between atoms: _107  and  _109
REMARK   47  A    between atoms: _109  and  _110
REMARK   48  A    between atoms: _109  and  _112
REMARK   49  A    between atoms: _112  and  _113
REMARK   50  A    between atoms: _116  and  _118
REMARK   51  A    between atoms: _118  and  _119
REMARK   52  A    between atoms: _118  and  _121
REMARK   53  A    between atoms: _124  and  _126
REMARK   54  A    between atoms: _126  and  _127
REMARK   55  A    between atoms: _126  and  _129
REMARK   56  A    between atoms: _129  and  _130
REMARK   57  A    between atoms: _130  and  _131
REMARK   58  A    between atoms: _131  and  _132
REMARK   59  A    between atoms: _141  and  _143
REMARK   60  A    between atoms: _143  and  _144
REMARK   61  A    between atoms: _143  and  _146
REMARK   62  A    between atoms: _146  and  _147
REMARK   63  A    between atoms: _152  and  _154
REMARK   64  A    between atoms: _154  and  _155
REMARK   65  A    between atoms: _154  and  _157
REMARK   66  A    between atoms: _157  and  _158
REMARK   67  A    between atoms: _158  and  _159
REMARK   68  A    between atoms: _162  and  _164
REMARK   69  A    between atoms: _164  and  _165
REMARK   70  A    between atoms: _164  and  _167
REMARK   71  A    between atoms: _167  and  _168
REMARK   72  A    between atoms: _168  and  _169
REMARK   73  A    between atoms: _169  and  _170
REMARK   74  A    between atoms: _170  and  _171
REMARK   75  A    between atoms: _175  and  _177
REMARK   76  A    between atoms: _177  and  _178
REMARK   77  A    between atoms: _177  and  _180
REMARK   78  A    between atoms: _183  and  _185
REMARK   79  A    between atoms: _185  and  _186
REMARK   80  A    between atoms: _185  and  _188
REMARK   81  A    between atoms: _188  and  _189
REMARK   82  A    between atoms: _191  and  _193
REMARK   83  A    between atoms: _193  and  _194
REMARK   84  A    between atoms: _193  and  _196
REMARK   85  A    between atoms: _196  and  _197
REMARK   86  A    between atoms: _199  and  _201
REMARK   87  A    between atoms: _201  and  _202
REMARK   88  A    between atoms: _201  and  _204
REMARK   89  A    between atoms: _204  and  _205
REMARK   90  A    between atoms: _211  and  _213
REMARK   91  A    between atoms: _213  and  _214
REMARK   92  A    between atoms: _213  and  _216
REMARK   93  A    between atoms: _216  and  _217
REMARK   94  A    between atoms: _220  and  _222
REMARK   95  A    between atoms: _222  and  _223
REMARK   96  A    between atoms: _222  and  _225
REMARK   97  A    between atoms: _225  and  _226
REMARK   98  A    between atoms: _229  and  _231
REMARK   99  A    between atoms: _231  and  _232
REMARK  100  A    between atoms: _231  and  _234
REMARK  101  A    between atoms: _234  and  _235
REMARK  102  A    between atoms: _238  and  _240
REMARK  103  A    between atoms: _240  and  _241
REMARK  104  A    between atoms: _240  and  _243
REMARK  105  A    between atoms: _243  and  _244
REMARK  106  A    between atoms: _244  and  _245
REMARK  107  A    between atoms: _247  and  _249
REMARK  108  A    between atoms: _249  and  _250
REMARK  109  A    between atoms: _249  and  _252
REMARK  110  A    between atoms: _252  and  _253
REMARK  111  A    between atoms: _259  and  _261
REMARK  112  A    between atoms: _261  and  _262
REMARK  113  A    between atoms: _261  and  _264
REMARK  114  A    between atoms: _266  and  _268
REMARK  115  A    between atoms: _268  and  _269
REMARK  116  A    between atoms: _272  and  _274
REMARK  117  A    between atoms: _274  and  _275
REMARK  118  A    between atoms: _277  and  _279
REMARK  119  A    between atoms: _279  and  _280
REMARK  120  A    between atoms: _279  and  _282
REMARK  121  A    between atoms: _282  and  _283
REMARK  122  A    between atoms: _283  and  _284
REMARK  123  A    between atoms: _287  and  _289
REMARK  124  A    between atoms: _289  and  _290
REMARK  125  A    between atoms: _289  and  _292
REMARK  126  A    between atoms: _292  and  _293
REMARK  127  A    between atoms: _296  and  _298
REMARK  128  A    between atoms: _298  and  _299
REMARK  129  A    between atoms: _302  and  _304
REMARK  130  A    between atoms: _304  and  _305
REMARK  131  A    between atoms: _304  and  _307
REMARK  132  A    between atoms: _307  and  _308
REMARK  133  A    between atoms: _308  and  _431
REMARK  134  A    between atoms: _309  and  _311
REMARK  135  A    between atoms: _311  and  _312
REMARK  136  A    between atoms: _311  and  _314
REMARK  137  A    between atoms: _314  and  _315
REMARK  138  A    between atoms: _315  and  _316
REMARK  139  A    between atoms: _321  and  _323
REMARK  140  A    between atoms: _323  and  _324
REMARK  141  A    between atoms: _326  and  _328
REMARK  142  A    between atoms: _328  and  _329
REMARK  143  A    between atoms: _328  and  _331
REMARK  144  A    between atoms: _331  and  _332
REMARK  145  A    between atoms: _335  and  _337
REMARK  146  A    between atoms: _337  and  _338
REMARK  147  A    between atoms: _337  and  _340
REMARK  148  A    between atoms: _340  and  _341
REMARK  149  A    between atoms: _343  and  _345
REMARK  150  A    between atoms: _345  and  _346
REMARK  151  A    between atoms: _348  and  _350
REMARK  152  A    between atoms: _350  and  _351
REMARK  153  A    between atoms: _353  and  _355
REMARK  154  A    between atoms: _355  and  _356
REMARK  155  A    between atoms: _355  and  _358
REMARK  156  A    between atoms: _358  and  _359
REMARK  157  A    between atoms: _364  and  _366
REMARK  158  A    between atoms: _366  and  _367
REMARK  159  A    between atoms: _366  and  _369
REMARK  160  A    between atoms: _369  and  _370
REMARK  161  A    between atoms: _373  and  _375
REMARK  162  A    between atoms: _375  and  _376
REMARK  163  A    between atoms: _375  and  _378
REMARK  164  A    between atoms: _381  and  _383
REMARK  165  A    between atoms: _383  and  _384
REMARK  166  A    between atoms: _383  and  _386
REMARK  167  A    between atoms: _386  and  _387
REMARK  168  A    between atoms: _389  and  _391
REMARK  169  A    between atoms: _391  and  _392
REMARK  170  A    between atoms: _391  and  _394
REMARK  171  A    between atoms: _394  and  _395
REMARK  172  A    between atoms: _405  and  _407
REMARK  173  A    between atoms: _407  and  _408
REMARK  174  A    between atoms: _410  and  _412
REMARK  175  A    between atoms: _412  and  _413
REMARK  176  A    between atoms: _412  and  _415
REMARK  177  A    between atoms: _415  and  _416
REMARK  178  A    between atoms: _416  and  _417
REMARK  179  A    between atoms: _420  and  _422
REMARK  180  A    between atoms: _422  and  _423
REMARK  181  A    between atoms: _425  and  _427
REMARK  182  A    between atoms: _427  and  _428
REMARK  183  A    between atoms: _427  and  _430
REMARK  184  A    between atoms: _430  and  _431
REMARK  185  A    between atoms: _432  and  _434
REMARK  186  A    between atoms: _434  and  _435
REMARK  187  A    between atoms: _438  and  _440
REMARK  188  A    between atoms: _440  and  _441
REMARK  189  A    between atoms: _440  and  _443
REMARK  190  A    between atoms: _443  and  _444
REMARK  191  A    between atoms: _444  and  _445
REMARK  192  A    between atoms: _445  and  _446
REMARK  193  A    between atoms: _455  and  _457
REMARK  194  A    between atoms: _457  and  _458
REMARK  195  A    between atoms: _457  and  _460
REMARK  196  A    between atoms: _460  and  _461
REMARK  197  A    between atoms: _461  and  _462
REMARK  198  A    between atoms: _462  and  _463
REMARK  199  A    between atoms: _463  and  _464
REMARK  200  A    between atoms: _468  and  _470
REMARK  201  A    between atoms: _470  and  _471
REMARK  202  A    between atoms: _470  and  _473
REMARK  203  A    between atoms: _473  and  _474
REMARK  204  A    between atoms: _479  and  _480
REMARK  205  A    between atoms: _482  and  _484
REMARK  206  A    between atoms: _484  and  _485
REMARK  207  A    between atoms: _487  and  _489
REMARK  208  A    between atoms: _489  and  _490
REMARK  209  A    between atoms: _489  and  _492
REMARK  210  A    between atoms: _492  and  _493
REMARK  211  A    between atoms: _496  and  _498
REMARK  212  A    between atoms: _498  and  _499
REMARK  213  A    between atoms: _498  and  _501
REMARK  214  A    between atoms: _501  and  _502
REMARK  215  A    between atoms: _507  and  _508
REMARK  216  A    between atoms: _510  and  _512
REMARK  217  A    between atoms: _512  and  _513
REMARK  218  A    between atoms: _512  and  _515
REMARK  219  A    between atoms: _515  and  _516
REMARK                            x       y       z     vdW  Elec       q    Type
REMARK                         _______ _______ _______ _____ _____    ______ ____
ROOT
ATOM      1  CA  VAL A   1       6.188   4.583  32.766  0.00  0.00    +0.133 C 
ENDROOT
BRANCH   1   2
ATOM      2  CB  VAL A   1       4.765   4.741  32.152  0.00  0.00    +0.023 C 
ATOM      3  CG2 VAL A   1       3.737   5.057  33.229  0.00  0.00    +0.002 C 
ATOM      4  CG1 VAL A   1       4.742   5.778  30.986  0.00  0.00    +0.002 C 
ENDBRANCH   1   2
BRANCH   1   5
ATOM      5  N   VAL A   1       6.168   3.696  33.893  0.00  0.00    -0.239 NA
ATOM      6  H   VAL A   1       5.577   3.941  34.713  0.00  0.00    +0.142 HD
ENDBRANCH   1   5
BRANCH   1   7
ATOM      7  C   VAL A   1       6.725   5.904  33.283  0.00  0.00    +0.224 C 
ATOM      8  O   VAL A   1       6.515   6.278  34.430  0.00  0.00    -0.287 OA
ENDBRANCH   1   7
TORSDOF 3
REMARK  Name = ../refined-set-2016/2vvu/2vvu_pocket.pdb
REMARK  219 active torsions:
REMARK  status: ('A' for Active; 'I' for Inactive)
REMARK    1  A    between atoms: _1  and  _5
REMARK    2  A    between atoms: _5  and  _6
REMARK    3  A    between atoms: _5  and  _8
REMARK    4  A    between atoms: _8  and  _9
REMARK    5  A    between atoms: _12  and  _14
REMARK    6  A    between atoms: _14  and  _15
REMARK    7  A    between atoms: _14  and  _17
REMARK    8  A    between atoms: _20  and  _22
REMARK    9  A    between atoms: _22  and  _23
REMARK   10  A    between atoms: _22  and  _25
REMARK   11  A    between atoms: _25  and  _26
REMARK   12  A    between atoms: _31  and  _33
REMARK   13  A    between atoms: _33  and  _34
REMARK   14  A    between atoms: _33  and  _36
REMARK   15  A    between atoms: _36  and  _37
REMARK   16  A    between atoms: _37  and  _38
REMARK   17  A    between atoms: _43  and  _45
REMARK   18  A    between atoms: _45  and  _46
REMARK   19  A    between atoms: _45  and  _48
REMARK   20  A    between atoms: _48  and  _49
REMARK   21  A    between atoms: _52  and  _54
REMARK   22  A    between atoms: _54  and  _55
REMARK   23  A    between atoms: _54  and  _57
REMARK   24  A    between atoms: _57  and  _58
REMARK   25  A    between atoms: _58  and  _59
REMARK   26  A    between atoms: _59  and  _60
REMARK   27  A    between atoms: _60  and  _61
REMARK   28  A    between atoms: _65  and  _67
REMARK   29  A    between atoms: _67  and  _68
REMARK   30  A    between atoms: _67  and  _70
REMARK   31  A    between atoms: _70  and  _71
REMARK   32  A    between atoms: _71  and  _72
REMARK   33  A    between atoms: _75  and  _77
REMARK   34  A    between atoms: _77  and  _78
REMARK   35  A    between atoms: _77  and  _80
REMARK   36  A    between atoms: _80  and  _81
REMARK   37  A    between atoms: _84  and  _86
REMARK   38  A    between atoms: _86  and  _87
REMARK   39  A    between atoms: _86  and  _89
REMARK   40  A    between atoms: _89  and  _90
REMARK   41  A    between atoms: _95  and  _96
REMARK   42  A    between atoms: _98  and  _100
REMARK   43  A    between atoms: _100  and  _101
REMARK   44  A    between atoms: _100  and  _103
REMARK   45  A    between atoms: _103  and  _104
REMARK   46  A    between atoms: _107  and  _109
REMARK   47  A    between atoms: _109  and  _110
REMARK   48  A    between atoms: _109  and  _112
REMARK   49  A    between atoms: _112  and  _113
REMARK   50  A    between atoms: _116  and  _118
REMARK   51  A    between atoms: _118  and  _119
REMARK   52  A    between atoms: _118  and  _121
REMARK   53  A    between atoms: _124  and  _126
REMARK   54  A    between atoms: _126  and  _127
REMARK   55  A    between atoms: _126  and  _129
REMARK   56  A    between atoms: _129  and  _130
REMARK   57  A    between atoms: _130  and  _131
REMARK   58  A    between atoms: _131  and  _132
REMARK   59  A    between atoms: _141  and  _143
REMARK   60  A    between atoms: _143  and  _144
REMARK   61  A    between atoms: _143  and  _146
REMARK   62  A    between atoms: _146  and  _147
REMARK   63  A    between atoms: _152  and  _154
REMARK   64  A    between atoms: _154  and  _155
REMARK   65  A    between atoms: _154  and  _157
REMARK   66  A    between atoms: _157  and  _158
REMARK   67  A    between atoms: _158  and  _159
REMARK   68  A    between atoms: _162  and  _164
REMARK   69  A    between atoms: _164  and  _165
REMARK   70  A    between atoms: _164  and  _167
REMARK   71  A    between atoms: _167  and  _168
REMARK   72  A    between atoms: _168  and  _169
REMARK   73  A    between atoms: _169  and  _170
REMARK   74  A    between atoms: _170  and  _171
REMARK   75  A    between atoms: _175  and  _177
REMARK   76  A    between atoms: _177  and  _178
REMARK   77  A    between atoms: _177  and  _180
REMARK   78  A    between atoms: _183  and  _185
REMARK   79  A    between atoms: _185  and  _186
REMARK   80  A    between atoms: _185  and  _188
REMARK   81  A    between atoms: _188  and  _189
REMARK   82  A    between atoms: _191  and  _193
REMARK   83  A    between atoms: _193  and  _194
REMARK   84  A    between atoms: _193  and  _196
REMARK   85  A    between atoms: _196  and  _197
REMARK   86  A    between atoms: _199  and  _201
REMARK   87  A    between atoms: _201  and  _202
REMARK   88  A    between atoms: _201  and  _204
REMARK   89  A    between atoms: _204  and  _205
REMARK   90  A    between atoms: _211  and  _213
REMARK   91  A    between atoms: _213  and  _214
REMARK   92  A    between atoms: _213  and  _216
REMARK   93  A    between atoms: _216  and  _217
REMARK   94  A    between atoms: _220  and  _222
REMARK   95  A    between atoms: _222  and  _223
REMARK   96  A    between atoms: _222  and  _225
REMARK   97  A    between atoms: _225  and  _226
REMARK   98  A    between atoms: _229  and  _231
REMARK   99  A    between atoms: _231  and  _232
REMARK  100  A    between atoms: _231  and  _234
REMARK  101  A    between atoms: _234  and  _235
REMARK  102  A    between atoms: _238  and  _240
REMARK  103  A    between atoms: _240  and  _241
REMARK  104  A    between atoms: _240  and  _243
REMARK  105  A    between atoms: _243  and  _244
REMARK  106  A    between atoms: _244  and  _245
REMARK  107  A    between atoms: _247  and  _249
REMARK  108  A    between atoms: _249  and  _250
REMARK  109  A    between atoms: _249  and  _252
REMARK  110  A    between atoms: _252  and  _253
REMARK  111  A    between atoms: _259  and  _261
REMARK  112  A    between atoms: _261  and  _262
REMARK  113  A    between atoms: _261  and  _264
REMARK  114  A    between atoms: _266  and  _268
REMARK  115  A    between atoms: _268  and  _269
REMARK  116  A    between atoms: _272  and  _274
REMARK  117  A    between atoms: _274  and  _275
REMARK  118  A    between atoms: _277  and  _279
REMARK  119  A    between atoms: _279  and  _280
REMARK  120  A    between atoms: _279  and  _282
REMARK  121  A    between atoms: _282  and  _283
REMARK  122  A    between atoms: _283  and  _284
REMARK  123  A    between atoms: _287  and  _289
REMARK  124  A    between atoms: _289  and  _290
REMARK  125  A    between atoms: _289  and  _292
REMARK  126  A    between atoms: _292  and  _293
REMARK  127  A    between atoms: _296  and  _298
REMARK  128  A    between atoms: _298  and  _299
REMARK  129  A    between atoms: _302  and  _304
REMARK  130  A    between atoms: _304  and  _305
REMARK  131  A    between atoms: _304  and  _307
REMARK  132  A    between atoms: _307  and  _308
REMARK  133  A    between atoms: _308  and  _431
REMARK  134  A    between atoms: _309  and  _311
REMARK  135  A    between atoms: _311  and  _312
REMARK  136  A    between atoms: _311  and  _314
REMARK  137  A    between atoms: _314  and  _315
REMARK  138  A    between atoms: _315  and  _316
REMARK  139  A    between atoms: _321  and  _323
REMARK  140  A    between atoms: _323  and  _324
REMARK  141  A    between atoms: _326  and  _328
REMARK  142  A    between atoms: _328  and  _329
REMARK  143  A    between atoms: _328  and  _331
REMARK  144  A    between atoms: _331  and  _332
REMARK  145  A    between atoms: _335  and  _337
REMARK  146  A    between atoms: _337  and  _338
REMARK  147  A    between atoms: _337  and  _340
REMARK  148  A    between atoms: _340  and  _341
REMARK  149  A    between atoms: _343  and  _345
REMARK  150  A    between atoms: _345  and  _346
REMARK  151  A    between atoms: _348  and  _350
REMARK  152  A    between atoms: _350  and  _351
REMARK  153  A    between atoms: _353  and  _355
REMARK  154  A    between atoms: _355  and  _356
REMARK  155  A    between atoms: _355  and  _358
REMARK  156  A    between atoms: _358  and  _359
REMARK  157  A    between atoms: _364  and  _366
REMARK  158  A    between atoms: _366  and  _367
REMARK  159  A    between atoms: _366  and  _369
REMARK  160  A    between atoms: _369  and  _370
REMARK  161  A    between atoms: _373  and  _375
REMARK  162  A    between atoms: _375  and  _376
REMARK  163  A    between atoms: _375  and  _378
REMARK  164  A    between atoms: _381  and  _383
REMARK  165  A    between atoms: _383  and  _384
REMARK  166  A    between atoms: _383  and  _386
REMARK  167  A    between atoms: _386  and  _387
REMARK  168  A    between atoms: _389  and  _391
REMARK  169  A    between atoms: _391  and  _392
REMARK  170  A    between atoms: _391  and  _394
REMARK  171  A    between atoms: _394  and  _395
REMARK  172  A    between atoms: _405  and  _407
REMARK  173  A    between atoms: _407  and  _408
REMARK  174  A    between atoms: _410  and  _412
REMARK  175  A    between atoms: _412  and  _413
REMARK  176  A    between atoms: _412  and  _415
REMARK  177  A    between atoms: _415  and  _416
REMARK  178  A    between atoms: _416  and  _417
REMARK  179  A    between atoms: _420  and  _422
REMARK  180  A    between atoms: _422  and  _423
REMARK  181  A    between atoms: _425  and  _427
REMARK  182  A    between atoms: _427  and  _428
REMARK  183  A    between atoms: _427  and  _430
REMARK  184  A    between atoms: _430  and  _431
REMARK  185  A    between atoms: _432  and  _434
REMARK  186  A    between atoms: _434  and  _435
REMARK  187  A    between atoms: _438  and  _440
REMARK  188  A    between atoms: _440  and  _441
REMARK  189  A    between atoms: _440  and  _443
REMARK  190  A    between atoms: _443  and  _444
REMARK  191  A    between atoms: _444  and  _445
REMARK  192  A    between atoms: _445  and  _446
REMARK  193  A    between atoms: _455  and  _457
REMARK  194  A    between atoms: _457  and  _458
REMARK  195  A    between atoms: _457  and  _460
REMARK  196  A    between atoms: _460  and  _461
REMARK  197  A    between atoms: _461  and  _462
REMARK  198  A    between atoms: _462  and  _463
REMARK  199  A    between atoms: _463  and  _464
REMARK  200  A    between atoms: _468  and  _470
REMARK  201  A    between atoms: _470  and  _471
REMARK  202  A    between atoms: _470  and  _473
REMARK  203  A    between atoms: _473  and  _474
REMARK  204  A    between atoms: _479  and  _480
REMARK  205  A    between atoms: _482  and  _484
REMARK  206  A    between atoms: _484  and  _485
REMARK  207  A    between atoms: _487  and  _489
REMARK  208  A    between atoms: _489  and  _490
REMARK  209  A    between atoms: _489  and  _492
REMARK  210  A    between atoms: _492  and  _493
REMARK  211  A    between atoms: _496  and  _498
REMARK  212  A    between atoms: _498  and  _499
REMARK  213  A    between atoms: _498  and  _501
REMARK  214  A    between atoms: _501  and  _502
REMARK  215  A    between atoms: _507  and  _508
REMARK  216  A    between atoms: _510  and  _512
REMARK  217  A    between atoms: _512  and  _513
REMARK  218  A    between atoms: _512  and  _515
REMARK  219  A    between atoms: _515  and  _516
REMARK                            x       y       z     vdW  Elec       q    Type
REMARK                         _______ _______ _______ _____ _____    ______ ____
ROOT
ATOM      1  NE  ARG A   1      -0.607  18.949  27.041  0.00  0.00    -0.265 N 
ATOM      2  HE  ARG A   1       0.322  18.751  26.618  0.00  0.00    +0.259 HD
ATOM      3  CZ  ARG A   1      -1.511  19.571  26.294  0.00  0.00    +0.342 C 
ATOM      4  NH2 ARG A   1      -2.709  19.861  26.791  0.00  0.00    -0.292 N 
ATOM      5 HH21 ARG A   1      -2.943  19.600  27.770  0.00  0.00    +0.255 HD
ATOM      6 HH22 ARG A   1      -3.413  20.348  26.201  0.00  0.00    +0.255 HD
ATOM      7  NH1 ARG A   1      -1.215  19.912  25.052  0.00  0.00    -0.292 N 
ATOM      8 HH11 ARG A   1      -0.276  19.693  24.662  0.00  0.00    +0.255 HD
ATOM      9 HH12 ARG A   1      -1.921  20.399  24.464  0.00  0.00    +0.255 HD
ENDROOT
BRANCH   1  10
ATOM     10  CD  ARG A   1      -0.835  18.525  28.420  0.00  0.00    +0.174 C 
BRANCH  10  11
ATOM     11  CG  ARG A   1       0.472  18.268  29.143  0.00  0.00    +0.045 C 
BRANCH  11  12
ATOM     12  CB  ARG A   1       0.277  17.284  30.268  0.00  0.00    +0.029 C 
BRANCH  12  13
ATOM     13  CA  ARG A   1       1.562  16.977  31.030  0.00  0.00    +0.133 C 
BRANCH  13  14
ATOM     14  N   ARG A   1       2.505  16.198  30.212  0.00  0.00    -0.239 NA
ATOM     15  H   ARG A   1       2.262  15.977  29.225  0.00  0.00    +0.142 HD
ENDBRANCH  13  14
BRANCH  13  16
ATOM     16  C   ARG A   1       1.213  16.302  32.343  0.00  0.00    +0.224 C 
ATOM     17  O   ARG A   1       1.307  15.076  32.467  0.00  0.00    -0.287 OA
ENDBRANCH  13  16
ENDBRANCH  12  13
ENDBRANCH  11  12
ENDBRANCH  10  11
ENDBRANCH   1  10
TORSDOF 6
REMARK  Name = ../refined-set-2016/2vvu/2vvu_pocket.pdb
REMARK  219 active torsions:
REMARK  status: ('A' for Active; 'I' for Inactive)
REMARK    1  A    between atoms: _1  and  _5
REMARK    2  A    between atoms: _5  and  _6
REMARK    3  A    between atoms: _5  and  _8
REMARK    4  A    between atoms: _8  and  _9
REMARK    5  A    between atoms: _12  and  _14
REMARK    6  A    between atoms: _14  and  _15
REMARK    7  A    between atoms: _14  and  _17
REMARK    8  A    between atoms: _20  and  _22
REMARK    9  A    between atoms: _22  and  _23
REMARK   10  A    between atoms: _22  and  _25
REMARK   11  A    between atoms: _25  and  _26
REMARK   12  A    between atoms: _31  and  _33
REMARK   13  A    between atoms: _33  and  _34
REMARK   14  A    between atoms: _33  and  _36
REMARK   15  A    between atoms: _36  and  _37
REMARK   16  A    between atoms: _37  and  _38
REMARK   17  A    between atoms: _43  and  _45
REMARK   18  A    between atoms: _45  and  _46
REMARK   19  A    between atoms: _45  and  _48
REMARK   20  A    between atoms: _48  and  _49
REMARK   21  A    between atoms: _52  and  _54
REMARK   22  A    between atoms: _54  and  _55
REMARK   23  A    between atoms: _54  and  _57
REMARK   24  A    between atoms: _57  and  _58
REMARK   25  A    between atoms: _58  and  _59
REMARK   26  A    between atoms: _59  and  _60
REMARK   27  A    between atoms: _60  and  _61
REMARK   28  A    between atoms: _65  and  _67
REMARK   29  A    between atoms: _67  and  _68
REMARK   30  A    between atoms: _67  and  _70
REMARK   31  A    between atoms: _70  and  _71
REMARK   32  A    between atoms: _71  and  _72
REMARK   33  A    between atoms: _75  and  _77
REMARK   34  A    between atoms: _77  and  _78
REMARK   35  A    between atoms: _77  and  _80
REMARK   36  A    between atoms: _80  and  _81
REMARK   37  A    between atoms: _84  and  _86
REMARK   38  A    between atoms: _86  and  _87
REMARK   39  A    between atoms: _86  and  _89
REMARK   40  A    between atoms: _89  and  _90
REMARK   41  A    between atoms: _95  and  _96
REMARK   42  A    between atoms: _98  and  _100
REMARK   43  A    between atoms: _100  and  _101
REMARK   44  A    between atoms: _100  and  _103
REMARK   45  A    between atoms: _103  and  _104
REMARK   46  A    between atoms: _107  and  _109
REMARK   47  A    between atoms: _109  and  _110
REMARK   48  A    between atoms: _109  and  _112
REMARK   49  A    between atoms: _112  and  _113
REMARK   50  A    between atoms: _116  and  _118
REMARK   51  A    between atoms: _118  and  _119
REMARK   52  A    between atoms: _118  and  _121
REMARK   53  A    between atoms: _124  and  _126
REMARK   54  A    between atoms: _126  and  _127
REMARK   55  A    between atoms: _126  and  _129
REMARK   56  A    between atoms: _129  and  _130
REMARK   57  A    between atoms: _130  and  _131
REMARK   58  A    between atoms: _131  and  _132
REMARK   59  A    between atoms: _141  and  _143
REMARK   60  A    between atoms: _143  and  _144
REMARK   61  A    between atoms: _143  and  _146
REMARK   62  A    between atoms: _146  and  _147
REMARK   63  A    between atoms: _152  and  _154
REMARK   64  A    between atoms: _154  and  _155
REMARK   65  A    between atoms: _154  and  _157
REMARK   66  A    between atoms: _157  and  _158
REMARK   67  A    between atoms: _158  and  _159
REMARK   68  A    between atoms: _162  and  _164
REMARK   69  A    between atoms: _164  and  _165
REMARK   70  A    between atoms: _164  and  _167
REMARK   71  A    between atoms: _167  and  _168
REMARK   72  A    between atoms: _168  and  _169
REMARK   73  A    between atoms: _169  and  _170
REMARK   74  A    between atoms: _170  and  _171
REMARK   75  A    between atoms: _175  and  _177
REMARK   76  A    between atoms: _177  and  _178
REMARK   77  A    between atoms: _177  and  _180
REMARK   78  A    between atoms: _183  and  _185
REMARK   79  A    between atoms: _185  and  _186
REMARK   80  A    between atoms: _185  and  _188
REMARK   81  A    between atoms: _188  and  _189
REMARK   82  A    between atoms: _191  and  _193
REMARK   83  A    between atoms: _193  and  _194
REMARK   84  A    between atoms: _193  and  _196
REMARK   85  A    between atoms: _196  and  _197
REMARK   86  A    between atoms: _199  and  _201
REMARK   87  A    between atoms: _201  and  _202
REMARK   88  A    between atoms: _201  and  _204
REMARK   89  A    between atoms: _204  and  _205
REMARK   90  A    between atoms: _211  and  _213
REMARK   91  A    between atoms: _213  and  _214
REMARK   92  A    between atoms: _213  and  _216
REMARK   93  A    between atoms: _216  and  _217
REMARK   94  A    between atoms: _220  and  _222
REMARK   95  A    between atoms: _222  and  _223
REMARK   96  A    between atoms: _222  and  _225
REMARK   97  A    between atoms: _225  and  _226
REMARK   98  A    between atoms: _229  and  _231
REMARK   99  A    between atoms: _231  and  _232
REMARK  100  A    between atoms: _231  and  _234
REMARK  101  A    between atoms: _234  and  _235
REMARK  102  A    between atoms: _238  and  _240
REMARK  103  A    between atoms: _240  and  _241
REMARK  104  A    between atoms: _240  and  _243
REMARK  105  A    between atoms: _243  and  _244
REMARK  106  A    between atoms: _244  and  _245
REMARK  107  A    between atoms: _247  and  _249
REMARK  108  A    between atoms: _249  and  _250
REMARK  109  A    between atoms: _249  and  _252
REMARK  110  A    between atoms: _252  and  _253
REMARK  111  A    between atoms: _259  and  _261
REMARK  112  A    between atoms: _261  and  _262
REMARK  113  A    between atoms: _261  and  _264
REMARK  114  A    between atoms: _266  and  _268
REMARK  115  A    between atoms: _268  and  _269
REMARK  116  A    between atoms: _272  and  _274
REMARK  117  A    between atoms: _274  and  _275
REMARK  118  A    between atoms: _277  and  _279
REMARK  119  A    between atoms: _279  and  _280
REMARK  120  A    between atoms: _279  and  _282
REMARK  121  A    between atoms: _282  and  _283
REMARK  122  A    between atoms: _283  and  _284
REMARK  123  A    between atoms: _287  and  _289
REMARK  124  A    between atoms: _289  and  _290
REMARK  125  A    between atoms: _289  and  _292
REMARK  126  A    between atoms: _292  and  _293
REMARK  127  A    between atoms: _296  and  _298
REMARK  128  A    between atoms: _298  and  _299
REMARK  129  A    between atoms: _302  and  _304
REMARK  130  A    between atoms: _304  and  _305
REMARK  131  A    between atoms: _304  and  _307
REMARK  132  A    between atoms: _307  and  _308
REMARK  133  A    between atoms: _308  and  _431
REMARK  134  A    between atoms: _309  and  _311
REMARK  135  A    between atoms: _311  and  _312
REMARK  136  A    between atoms: _311  and  _314
REMARK  137  A    between atoms: _314  and  _315
REMARK  138  A    between atoms: _315  and  _316
REMARK  139  A    between atoms: _321  and  _323
REMARK  140  A    between atoms: _323  and  _324
REMARK  141  A    between atoms: _326  and  _328
REMARK  142  A    between atoms: _328  and  _329
REMARK  143  A    between atoms: _328  and  _331
REMARK  144  A    between atoms: _331  and  _332
REMARK  145  A    between atoms: _335  and  _337
REMARK  146  A    between atoms: _337  and  _338
REMARK  147  A    between atoms: _337  and  _340
REMARK  148  A    between atoms: _340  and  _341
REMARK  149  A    between atoms: _343  and  _345
REMARK  150  A    between atoms: _345  and  _346
REMARK  151  A    between atoms: _348  and  _350
REMARK  152  A    between atoms: _350  and  _351
REMARK  153  A    between atoms: _353  and  _355
REMARK  154  A    between atoms: _355  and  _356
REMARK  155  A    between atoms: _355  and  _358
REMARK  156  A    between atoms: _358  and  _359
REMARK  157  A    between atoms: _364  and  _366
REMARK  158  A    between atoms: _366  and  _367
REMARK  159  A    between atoms: _366  and  _369
REMARK  160  A    between atoms: _369  and  _370
REMARK  161  A    between atoms: _373  and  _375
REMARK  162  A    between atoms: _375  and  _376
REMARK  163  A    between atoms: _375  and  _378
REMARK  164  A    between atoms: _381  and  _383
REMARK  165  A    between atoms: _383  and  _384
REMARK  166  A    between atoms: _383  and  _386
REMARK  167  A    between atoms: _386  and  _387
REMARK  168  A    between atoms: _389  and  _391
REMARK  169  A    between atoms: _391  and  _392
REMARK  170  A    between atoms: _391  and  _394
REMARK  171  A    between atoms: _394  and  _395
REMARK  172  A    between atoms: _405  and  _407
REMARK  173  A    between atoms: _407  and  _408
REMARK  174  A    between atoms: _410  and  _412
REMARK  175  A    between atoms: _412  and  _413
REMARK  176  A    between atoms: _412  and  _415
REMARK  177  A    between atoms: _415  and  _416
REMARK  178  A    between atoms: _416  and  _417
REMARK  179  A    between atoms: _420  and  _422
REMARK  180  A    between atoms: _422  and  _423
REMARK  181  A    between atoms: _425  and  _427
REMARK  182  A    between atoms: _427  and  _428
REMARK  183  A    between atoms: _427  and  _430
REMARK  184  A    between atoms: _430  and  _431
REMARK  185  A    between atoms: _432  and  _434
REMARK  186  A    between atoms: _434  and  _435
REMARK  187  A    between atoms: _438  and  _440
REMARK  188  A    between atoms: _440  and  _441
REMARK  189  A    between atoms: _440  and  _443
REMARK  190  A    between atoms: _443  and  _444
REMARK  191  A    between atoms: _444  and  _445
REMARK  192  A    between atoms: _445  and  _446
REMARK  193  A    between atoms: _455  and  _457
REMARK  194  A    between atoms: _457  and  _458
REMARK  195  A    between atoms: _457  and  _460
REMARK  196  A    between atoms: _460  and  _461
REMARK  197  A    between atoms: _461  and  _462
REMARK  198  A    between atoms: _462  and  _463
REMARK  199  A    between atoms: _463  and  _464
REMARK  200  A    between atoms: _468  and  _470
REMARK  201  A    between atoms: _470  and  _471
REMARK  202  A    between atoms: _470  and  _473
REMARK  203  A    between atoms: _473  and  _474
REMARK  204  A    between atoms: _479  and  _480
REMARK  205  A    between atoms: _482  and  _484
REMARK  206  A    between atoms: _484  and  _485
REMARK  207  A    between atoms: _487  and  _489
REMARK  208  A    between atoms: _489  and  _490
REMARK  209  A    between atoms: _489  and  _492
REMARK  210  A    between atoms: _492  and  _493
REMARK  211  A    between atoms: _496  and  _498
REMARK  212  A    between atoms: _498  and  _499
REMARK  213  A    between atoms: _498  and  _501
REMARK  214  A    between atoms: _501  and  _502
REMARK  215  A    between atoms: _507  and  _508
REMARK  216  A    between atoms: _510  and  _512
REMARK  217  A    between atoms: _512  and  _513
REMARK  218  A    between atoms: _512  and  _515
REMARK  219  A    between atoms: _515  and  _516
REMARK                            x       y       z     vdW  Elec       q    Type
REMARK                         _______ _______ _______ _____ _____    ______ ____
ROOT
ATOM      1  CA  GLU A   2      -5.118  16.458  30.605  0.00  0.00    +0.149 C 
ENDROOT
BRANCH   1   2
ATOM      2  C   GLU A   2      -4.959  17.852  29.980  0.00  0.00    +0.241 C 
ATOM      3  N   LYS A   3      -5.689  18.834  30.499  0.00  0.00    -0.298 N 
ATOM      4  H   LYS A   3      -6.310  18.640  31.310  0.00  0.00    +0.150 HD
ATOM      5  O   GLU A   2      -4.178  18.036  29.050  0.00  0.00    -0.273 OA
BRANCH   3   6
ATOM      6  CA  LYS A   3      -5.627  20.184  29.941  0.00  0.00    +0.137 C 
BRANCH   6   7
ATOM      7  C   LYS A   3      -4.452  20.966  30.518  0.00  0.00    +0.227 C 
ATOM      8  O   LYS A   3      -4.347  22.182  30.329  0.00  0.00    -0.286 OA
ENDBRANCH   6   7
BRANCH   6   9
ATOM      9  CB  LYS A   3      -6.942  20.931  30.199  0.00  0.00    +0.028 C 
BRANCH   9  10
ATOM     10  CG  LYS A   3      -8.156  20.247  29.583  0.00  0.00    -0.000 C 
BRANCH  10  11
ATOM     11  CD  LYS A   3      -9.460  20.930  29.972  0.00  0.00    -0.024 C 
BRANCH  11  12
ATOM     12  CE  LYS A   3     -10.631  20.323  29.215  0.00  0.00    -0.086 C 
BRANCH  12  13
ATOM     13  NZ  LYS A   3     -11.932  20.943  29.589  0.00  0.00    +0.380 N 
ATOM     14  HZ1 LYS A   3     -12.101  20.805  30.606  0.00  0.00    -0.089 HD
ATOM     15  HZ2 LYS A   3     -11.904  21.960  29.376  0.00  0.00    -0.089 HD
ATOM     16  HZ3 LYS A   3     -12.697  20.495  29.046  0.00  0.00    -0.089 HD
ENDBRANCH  12  13
ENDBRANCH  11  12
ENDBRANCH  10  11
ENDBRANCH   9  10
ENDBRANCH   6   9
ENDBRANCH   3   6
ENDBRANCH   1   2
BRANCH   1  18
ATOM     17  C   HIS A   1      -3.629  17.017  32.426  0.00  0.00    +0.239 C 
ATOM     18  N   GLU A   2      -4.727  16.410  32.003  0.00  0.00    -0.297 N 
ATOM     19  H   GLU A   2      -5.319  15.891  32.682  0.00  0.00    +0.150 HD
ATOM     20  O   HIS A   1      -2.956  17.749  31.699  0.00  0.00    -0.274 OA
BRANCH  17  21
ATOM     21  CA  HIS A   1      -3.191  16.706  33.861  0.00  0.00    +0.151 C 
BRANCH  21  22
ATOM     22  N   HIS A   1      -1.777  17.037  33.973  0.00  0.00    -0.238 NA
ATOM     23  H   HIS A   1      -1.360  17.703  33.292  0.00  0.00    +0.142 HD
ENDBRANCH  21  22
BRANCH  21  24
ATOM     24  CB  HIS A   1      -4.065  17.397  34.928  0.00  0.00    +0.074 C 
BRANCH  24  25
ATOM     25  CG  HIS A   1      -3.879  18.882  35.014  0.00  0.00    +0.082 A 
ATOM     26  ND1 HIS A   1      -2.822  19.462  35.681  0.00  0.00    -0.227 NA
ATOM     27  CE1 HIS A   1      -2.915  20.779  35.598  0.00  0.00    +0.199 A 
ATOM     28  NE2 HIS A   1      -4.005  21.074  34.915  0.00  0.00    -0.221 NA
ATOM     29  CD2 HIS A   1      -4.628  19.906  34.540  0.00  0.00    +0.115 A 
ENDBRANCH  24  25
ENDBRANCH  21  24
ENDBRANCH  17  21
ENDBRANCH   1  18
BRANCH   1  30
ATOM     30  CB  GLU A   2      -6.543  15.947  30.455  0.00  0.00    +0.041 C 
BRANCH  30  31
ATOM     31  CG  GLU A   2      -6.890  15.562  29.051  0.00  0.00    +0.116 C 
BRANCH  31  32
ATOM     32  CD  GLU A   2      -8.252  14.956  28.981  0.00  0.00    +0.365 C 
ATOM     33  OE2 GLU A   2      -8.641  14.261  29.941  0.00  0.00    -0.246 OA
ATOM     34  OE1 GLU A   2      -8.948  15.197  27.986  0.00  0.00    -0.246 OA
ENDBRANCH  31  32
ENDBRANCH  30  31
ENDBRANCH   1  30
TORSDOF 16
REMARK  Name = ../refined-set-2016/2vvu/2vvu_pocket.pdb
REMARK  219 active torsions:
REMARK  status: ('A' for Active; 'I' for Inactive)
REMARK    1  A    between atoms: _1  and  _5
REMARK    2  A    between atoms: _5  and  _6
REMARK    3  A    between atoms: _5  and  _8
REMARK    4  A    between atoms: _8  and  _9
REMARK    5  A    between atoms: _12  and  _14
REMARK    6  A    between atoms: _14  and  _15
REMARK    7  A    between atoms: _14  and  _17
REMARK    8  A    between atoms: _20  and  _22
REMARK    9  A    between atoms: _22  and  _23
REMARK   10  A    between atoms: _22  and  _25
REMARK   11  A    between atoms: _25  and  _26
REMARK   12  A    between atoms: _31  and  _33
REMARK   13  A    between atoms: _33  and  _34
REMARK   14  A    between atoms: _33  and  _36
REMARK   15  A    between atoms: _36  and  _37
REMARK   16  A    between atoms: _37  and  _38
REMARK   17  A    between atoms: _43  and  _45
REMARK   18  A    between atoms: _45  and  _46
REMARK   19  A    between atoms: _45  and  _48
REMARK   20  A    between atoms: _48  and  _49
REMARK   21  A    between atoms: _52  and  _54
REMARK   22  A    between atoms: _54  and  _55
REMARK   23  A    between atoms: _54  and  _57
REMARK   24  A    between atoms: _57  and  _58
REMARK   25  A    between atoms: _58  and  _59
REMARK   26  A    between atoms: _59  and  _60
REMARK   27  A    between atoms: _60  and  _61
REMARK   28  A    between atoms: _65  and  _67
REMARK   29  A    between atoms: _67  and  _68
REMARK   30  A    between atoms: _67  and  _70
REMARK   31  A    between atoms: _70  and  _71
REMARK   32  A    between atoms: _71  and  _72
REMARK   33  A    between atoms: _75  and  _77
REMARK   34  A    between atoms: _77  and  _78
REMARK   35  A    between atoms: _77  and  _80
REMARK   36  A    between atoms: _80  and  _81
REMARK   37  A    between atoms: _84  and  _86
REMARK   38  A    between atoms: _86  and  _87
REMARK   39  A    between atoms: _86  and  _89
REMARK   40  A    between atoms: _89  and  _90
REMARK   41  A    between atoms: _95  and  _96
REMARK   42  A    between atoms: _98  and  _100
REMARK   43  A    between atoms: _100  and  _101
REMARK   44  A    between atoms: _100  and  _103
REMARK   45  A    between atoms: _103  and  _104
REMARK   46  A    between atoms: _107  and  _109
REMARK   47  A    between atoms: _109  and  _110
REMARK   48  A    between atoms: _109  and  _112
REMARK   49  A    between atoms: _112  and  _113
REMARK   50  A    between atoms: _116  and  _118
REMARK   51  A    between atoms: _118  and  _119
REMARK   52  A    between atoms: _118  and  _121
REMARK   53  A    between atoms: _124  and  _126
REMARK   54  A    between atoms: _126  and  _127
REMARK   55  A    between atoms: _126  and  _129
REMARK   56  A    between atoms: _129  and  _130
REMARK   57  A    between atoms: _130  and  _131
REMARK   58  A    between atoms: _131  and  _132
REMARK   59  A    between atoms: _141  and  _143
REMARK   60  A    between atoms: _143  and  _144
REMARK   61  A    between atoms: _143  and  _146
REMARK   62  A    between atoms: _146  and  _147
REMARK   63  A    between atoms: _152  and  _154
REMARK   64  A    between atoms: _154  and  _155
REMARK   65  A    between atoms: _154  and  _157
REMARK   66  A    between atoms: _157  and  _158
REMARK   67  A    between atoms: _158  and  _159
REMARK   68  A    between atoms: _162  and  _164
REMARK   69  A    between atoms: _164  and  _165
REMARK   70  A    between atoms: _164  and  _167
REMARK   71  A    between atoms: _167  and  _168
REMARK   72  A    between atoms: _168  and  _169
REMARK   73  A    between atoms: _169  and  _170
REMARK   74  A    between atoms: _170  and  _171
REMARK   75  A    between atoms: _175  and  _177
REMARK   76  A    between atoms: _177  and  _178
REMARK   77  A    between atoms: _177  and  _180
REMARK   78  A    between atoms: _183  and  _185
REMARK   79  A    between atoms: _185  and  _186
REMARK   80  A    between atoms: _185  and  _188
REMARK   81  A    between atoms: _188  and  _189
REMARK   82  A    between atoms: _191  and  _193
REMARK   83  A    between atoms: _193  and  _194
REMARK   84  A    between atoms: _193  and  _196
REMARK   85  A    between atoms: _196  and  _197
REMARK   86  A    between atoms: _199  and  _201
REMARK   87  A    between atoms: _201  and  _202
REMARK   88  A    between atoms: _201  and  _204
REMARK   89  A    between atoms: _204  and  _205
REMARK   90  A    between atoms: _211  and  _213
REMARK   91  A    between atoms: _213  and  _214
REMARK   92  A    between atoms: _213  and  _216
REMARK   93  A    between atoms: _216  and  _217
REMARK   94  A    between atoms: _220  and  _222
REMARK   95  A    between atoms: _222  and  _223
REMARK   96  A    between atoms: _222  and  _225
REMARK   97  A    between atoms: _225  and  _226
REMARK   98  A    between atoms: _229  and  _231
REMARK   99  A    between atoms: _231  and  _232
REMARK  100  A    between atoms: _231  and  _234
REMARK  101  A    between atoms: _234  and  _235
REMARK  102  A    between atoms: _238  and  _240
REMARK  103  A    between atoms: _240  and  _241
REMARK  104  A    between atoms: _240  and  _243
REMARK  105  A    between atoms: _243  and  _244
REMARK  106  A    between atoms: _244  and  _245
REMARK  107  A    between atoms: _247  and  _249
REMARK  108  A    between atoms: _249  and  _250
REMARK  109  A    between atoms: _249  and  _252
REMARK  110  A    between atoms: _252  and  _253
REMARK  111  A    between atoms: _259  and  _261
REMARK  112  A    between atoms: _261  and  _262
REMARK  113  A    between atoms: _261  and  _264
REMARK  114  A    between atoms: _266  and  _268
REMARK  115  A    between atoms: _268  and  _269
REMARK  116  A    between atoms: _272  and  _274
REMARK  117  A    between atoms: _274  and  _275
REMARK  118  A    between atoms: _277  and  _279
REMARK  119  A    between atoms: _279  and  _280
REMARK  120  A    between atoms: _279  and  _282
REMARK  121  A    between atoms: _282  and  _283
REMARK  122  A    between atoms: _283  and  _284
REMARK  123  A    between atoms: _287  and  _289
REMARK  124  A    between atoms: _289  and  _290
REMARK  125  A    between atoms: _289  and  _292
REMARK  126  A    between atoms: _292  and  _293
REMARK  127  A    between atoms: _296  and  _298
REMARK  128  A    between atoms: _298  and  _299
REMARK  129  A    between atoms: _302  and  _304
REMARK  130  A    between atoms: _304  and  _305
REMARK  131  A    between atoms: _304  and  _307
REMARK  132  A    between atoms: _307  and  _308
REMARK  133  A    between atoms: _308  and  _431
REMARK  134  A    between atoms: _309  and  _311
REMARK  135  A    between atoms: _311  and  _312
REMARK  136  A    between atoms: _311  and  _314
REMARK  137  A    between atoms: _314  and  _315
REMARK  138  A    between atoms: _315  and  _316
REMARK  139  A    between atoms: _321  and  _323
REMARK  140  A    between atoms: _323  and  _324
REMARK  141  A    between atoms: _326  and  _328
REMARK  142  A    between atoms: _328  and  _329
REMARK  143  A    between atoms: _328  and  _331
REMARK  144  A    between atoms: _331  and  _332
REMARK  145  A    between atoms: _335  and  _337
REMARK  146  A    between atoms: _337  and  _338
REMARK  147  A    between atoms: _337  and  _340
REMARK  148  A    between atoms: _340  and  _341
REMARK  149  A    between atoms: _343  and  _345
REMARK  150  A    between atoms: _345  and  _346
REMARK  151  A    between atoms: _348  and  _350
REMARK  152  A    between atoms: _350  and  _351
REMARK  153  A    between atoms: _353  and  _355
REMARK  154  A    between atoms: _355  and  _356
REMARK  155  A    between atoms: _355  and  _358
REMARK  156  A    between atoms: _358  and  _359
REMARK  157  A    between atoms: _364  and  _366
REMARK  158  A    between atoms: _366  and  _367
REMARK  159  A    between atoms: _366  and  _369
REMARK  160  A    between atoms: _369  and  _370
REMARK  161  A    between atoms: _373  and  _375
REMARK  162  A    between atoms: _375  and  _376
REMARK  163  A    between atoms: _375  and  _378
REMARK  164  A    between atoms: _381  and  _383
REMARK  165  A    between atoms: _383  and  _384
REMARK  166  A    between atoms: _383  and  _386
REMARK  167  A    between atoms: _386  and  _387
REMARK  168  A    between atoms: _389  and  _391
REMARK  169  A    between atoms: _391  and  _392
REMARK  170  A    between atoms: _391  and  _394
REMARK  171  A    between atoms: _394  and  _395
REMARK  172  A    between atoms: _405  and  _407
REMARK  173  A    between atoms: _407  and  _408
REMARK  174  A    between atoms: _410  and  _412
REMARK  175  A    between atoms: _412  and  _413
REMARK  176  A    between atoms: _412  and  _415
REMARK  177  A    between atoms: _415  and  _416
REMARK  178  A    between atoms: _416  and  _417
REMARK  179  A    between atoms: _420  and  _422
REMARK  180  A    between atoms: _422  and  _423
REMARK  181  A    between atoms: _425  and  _427
REMARK  182  A    between atoms: _427  and  _428
REMARK  183  A    between atoms: _427  and  _430
REMARK  184  A    between atoms: _430  and  _431
REMARK  185  A    between atoms: _432  and  _434
REMARK  186  A    between atoms: _434  and  _435
REMARK  187  A    between atoms: _438  and  _440
REMARK  188  A    between atoms: _440  and  _441
REMARK  189  A    between atoms: _440  and  _443
REMARK  190  A    between atoms: _443  and  _444
REMARK  191  A    between atoms: _444  and  _445
REMARK  192  A    between atoms: _445  and  _446
REMARK  193  A    between atoms: _455  and  _457
REMARK  194  A    between atoms: _457  and  _458
REMARK  195  A    between atoms: _457  and  _460
REMARK  196  A    between atoms: _460  and  _461
REMARK  197  A    between atoms: _461  and  _462
REMARK  198  A    between atoms: _462  and  _463
REMARK  199  A    between atoms: _463  and  _464
REMARK  200  A    between atoms: _468  and  _470
REMARK  201  A    between atoms: _470  and  _471
REMARK  202  A    between atoms: _470  and  _473
REMARK  203  A    between atoms: _473  and  _474
REMARK  204  A    between atoms: _479  and  _480
REMARK  205  A    between atoms: _482  and  _484
REMARK  206  A    between atoms: _484  and  _485
REMARK  207  A    between atoms: _487  and  _489
REMARK  208  A    between atoms: _489  and  _490
REMARK  209  A    between atoms: _489  and  _492
REMARK  210  A    between atoms: _492  and  _493
REMARK  211  A    between atoms: _496  and  _498
REMARK  212  A    between atoms: _498  and  _499
REMARK  213  A    between atoms: _498  and  _501
REMARK  214  A    between atoms: _501  and  _502
REMARK  215  A    between atoms: _507  and  _508
REMARK  216  A    between atoms: _510  and  _512
REMARK  217  A    between atoms: _512  and  _513
REMARK  218  A    between atoms: _512  and  _515
REMARK  219  A    between atoms: _515  and  _516
REMARK                            x       y       z     vdW  Elec       q    Type
REMARK                         _______ _______ _______ _____ _____    ______ ____
ROOT
ATOM      1  CA  VAL A   1       0.935   1.359  36.217  0.00  0.00    +0.133 C 
ENDROOT
BRANCH   1   2
ATOM      2  CB  VAL A   1       0.754   2.034  34.813  0.00  0.00    +0.023 C 
ATOM      3  CG2 VAL A   1       0.643   3.522  34.972  0.00  0.00    +0.002 C 
ATOM      4  CG1 VAL A   1       1.915   1.703  33.868  0.00  0.00    +0.002 C 
ENDBRANCH   1   2
BRANCH   1   5
ATOM      5  N   VAL A   1       2.237   1.669  36.795  0.00  0.00    -0.239 NA
ATOM      6  H   VAL A   1       3.097   1.354  36.303  0.00  0.00    +0.142 HD
ENDBRANCH   1   5
BRANCH   1   7
ATOM      7  C   VAL A   1       0.649  -0.158  36.165  0.00  0.00    +0.224 C 
ATOM      8  O   VAL A   1       1.464  -0.943  35.689  0.00  0.00    -0.287 OA
ENDBRANCH   1   7
TORSDOF 3
REMARK  Name = ../refined-set-2016/2vvu/2vvu_pocket.pdb
REMARK  219 active torsions:
REMARK  status: ('A' for Active; 'I' for Inactive)
REMARK    1  A    between atoms: _1  and  _5
REMARK    2  A    between atoms: _5  and  _6
REMARK    3  A    between atoms: _5  and  _8
REMARK    4  A    between atoms: _8  and  _9
REMARK    5  A    between atoms: _12  and  _14
REMARK    6  A    between atoms: _14  and  _15
REMARK    7  A    between atoms: _14  and  _17
REMARK    8  A    between atoms: _20  and  _22
REMARK    9  A    between atoms: _22  and  _23
REMARK   10  A    between atoms: _22  and  _25
REMARK   11  A    between atoms: _25  and  _26
REMARK   12  A    between atoms: _31  and  _33
REMARK   13  A    between atoms: _33  and  _34
REMARK   14  A    between atoms: _33  and  _36
REMARK   15  A    between atoms: _36  and  _37
REMARK   16  A    between atoms: _37  and  _38
REMARK   17  A    between atoms: _43  and  _45
REMARK   18  A    between atoms: _45  and  _46
REMARK   19  A    between atoms: _45  and  _48
REMARK   20  A    between atoms: _48  and  _49
REMARK   21  A    between atoms: _52  and  _54
REMARK   22  A    between atoms: _54  and  _55
REMARK   23  A    between atoms: _54  and  _57
REMARK   24  A    between atoms: _57  and  _58
REMARK   25  A    between atoms: _58  and  _59
REMARK   26  A    between atoms: _59  and  _60
REMARK   27  A    between atoms: _60  and  _61
REMARK   28  A    between atoms: _65  and  _67
REMARK   29  A    between atoms: _67  and  _68
REMARK   30  A    between atoms: _67  and  _70
REMARK   31  A    between atoms: _70  and  _71
REMARK   32  A    between atoms: _71  and  _72
REMARK   33  A    between atoms: _75  and  _77
REMARK   34  A    between atoms: _77  and  _78
REMARK   35  A    between atoms: _77  and  _80
REMARK   36  A    between atoms: _80  and  _81
REMARK   37  A    between atoms: _84  and  _86
REMARK   38  A    between atoms: _86  and  _87
REMARK   39  A    between atoms: _86  and  _89
REMARK   40  A    between atoms: _89  and  _90
REMARK   41  A    between atoms: _95  and  _96
REMARK   42  A    between atoms: _98  and  _100
REMARK   43  A    between atoms: _100  and  _101
REMARK   44  A    between atoms: _100  and  _103
REMARK   45  A    between atoms: _103  and  _104
REMARK   46  A    between atoms: _107  and  _109
REMARK   47  A    between atoms: _109  and  _110
REMARK   48  A    between atoms: _109  and  _112
REMARK   49  A    between atoms: _112  and  _113
REMARK   50  A    between atoms: _116  and  _118
REMARK   51  A    between atoms: _118  and  _119
REMARK   52  A    between atoms: _118  and  _121
REMARK   53  A    between atoms: _124  and  _126
REMARK   54  A    between atoms: _126  and  _127
REMARK   55  A    between atoms: _126  and  _129
REMARK   56  A    between atoms: _129  and  _130
REMARK   57  A    between atoms: _130  and  _131
REMARK   58  A    between atoms: _131  and  _132
REMARK   59  A    between atoms: _141  and  _143
REMARK   60  A    between atoms: _143  and  _144
REMARK   61  A    between atoms: _143  and  _146
REMARK   62  A    between atoms: _146  and  _147
REMARK   63  A    between atoms: _152  and  _154
REMARK   64  A    between atoms: _154  and  _155
REMARK   65  A    between atoms: _154  and  _157
REMARK   66  A    between atoms: _157  and  _158
REMARK   67  A    between atoms: _158  and  _159
REMARK   68  A    between atoms: _162  and  _164
REMARK   69  A    between atoms: _164  and  _165
REMARK   70  A    between atoms: _164  and  _167
REMARK   71  A    between atoms: _167  and  _168
REMARK   72  A    between atoms: _168  and  _169
REMARK   73  A    between atoms: _169  and  _170
REMARK   74  A    between atoms: _170  and  _171
REMARK   75  A    between atoms: _175  and  _177
REMARK   76  A    between atoms: _177  and  _178
REMARK   77  A    between atoms: _177  and  _180
REMARK   78  A    between atoms: _183  and  _185
REMARK   79  A    between atoms: _185  and  _186
REMARK   80  A    between atoms: _185  and  _188
REMARK   81  A    between atoms: _188  and  _189
REMARK   82  A    between atoms: _191  and  _193
REMARK   83  A    between atoms: _193  and  _194
REMARK   84  A    between atoms: _193  and  _196
REMARK   85  A    between atoms: _196  and  _197
REMARK   86  A    between atoms: _199  and  _201
REMARK   87  A    between atoms: _201  and  _202
REMARK   88  A    between atoms: _201  and  _204
REMARK   89  A    between atoms: _204  and  _205
REMARK   90  A    between atoms: _211  and  _213
REMARK   91  A    between atoms: _213  and  _214
REMARK   92  A    between atoms: _213  and  _216
REMARK   93  A    between atoms: _216  and  _217
REMARK   94  A    between atoms: _220  and  _222
REMARK   95  A    between atoms: _222  and  _223
REMARK   96  A    between atoms: _222  and  _225
REMARK   97  A    between atoms: _225  and  _226
REMARK   98  A    between atoms: _229  and  _231
REMARK   99  A    between atoms: _231  and  _232
REMARK  100  A    between atoms: _231  and  _234
REMARK  101  A    between atoms: _234  and  _235
REMARK  102  A    between atoms: _238  and  _240
REMARK  103  A    between atoms: _240  and  _241
REMARK  104  A    between atoms: _240  and  _243
REMARK  105  A    between atoms: _243  and  _244
REMARK  106  A    between atoms: _244  and  _245
REMARK  107  A    between atoms: _247  and  _249
REMARK  108  A    between atoms: _249  and  _250
REMARK  109  A    between atoms: _249  and  _252
REMARK  110  A    between atoms: _252  and  _253
REMARK  111  A    between atoms: _259  and  _261
REMARK  112  A    between atoms: _261  and  _262
REMARK  113  A    between atoms: _261  and  _264
REMARK  114  A    between atoms: _266  and  _268
REMARK  115  A    between atoms: _268  and  _269
REMARK  116  A    between atoms: _272  and  _274
REMARK  117  A    between atoms: _274  and  _275
REMARK  118  A    between atoms: _277  and  _279
REMARK  119  A    between atoms: _279  and  _280
REMARK  120  A    between atoms: _279  and  _282
REMARK  121  A    between atoms: _282  and  _283
REMARK  122  A    between atoms: _283  and  _284
REMARK  123  A    between atoms: _287  and  _289
REMARK  124  A    between atoms: _289  and  _290
REMARK  125  A    between atoms: _289  and  _292
REMARK  126  A    between atoms: _292  and  _293
REMARK  127  A    between atoms: _296  and  _298
REMARK  128  A    between atoms: _298  and  _299
REMARK  129  A    between atoms: _302  and  _304
REMARK  130  A    between atoms: _304  and  _305
REMARK  131  A    between atoms: _304  and  _307
REMARK  132  A    between atoms: _307  and  _308
REMARK  133  A    between atoms: _308  and  _431
REMARK  134  A    between atoms: _309  and  _311
REMARK  135  A    between atoms: _311  and  _312
REMARK  136  A    between atoms: _311  and  _314
REMARK  137  A    between atoms: _314  and  _315
REMARK  138  A    between atoms: _315  and  _316
REMARK  139  A    between atoms: _321  and  _323
REMARK  140  A    between atoms: _323  and  _324
REMARK  141  A    between atoms: _326  and  _328
REMARK  142  A    between atoms: _328  and  _329
REMARK  143  A    between atoms: _328  and  _331
REMARK  144  A    between atoms: _331  and  _332
REMARK  145  A    between atoms: _335  and  _337
REMARK  146  A    between atoms: _337  and  _338
REMARK  147  A    between atoms: _337  and  _340
REMARK  148  A    between atoms: _340  and  _341
REMARK  149  A    between atoms: _343  and  _345
REMARK  150  A    between atoms: _345  and  _346
REMARK  151  A    between atoms: _348  and  _350
REMARK  152  A    between atoms: _350  and  _351
REMARK  153  A    between atoms: _353  and  _355
REMARK  154  A    between atoms: _355  and  _356
REMARK  155  A    between atoms: _355  and  _358
REMARK  156  A    between atoms: _358  and  _359
REMARK  157  A    between atoms: _364  and  _366
REMARK  158  A    between atoms: _366  and  _367
REMARK  159  A    between atoms: _366  and  _369
REMARK  160  A    between atoms: _369  and  _370
REMARK  161  A    between atoms: _373  and  _375
REMARK  162  A    between atoms: _375  and  _376
REMARK  163  A    between atoms: _375  and  _378
REMARK  164  A    between atoms: _381  and  _383
REMARK  165  A    between atoms: _383  and  _384
REMARK  166  A    between atoms: _383  and  _386
REMARK  167  A    between atoms: _386  and  _387
REMARK  168  A    between atoms: _389  and  _391
REMARK  169  A    between atoms: _391  and  _392
REMARK  170  A    between atoms: _391  and  _394
REMARK  171  A    between atoms: _394  and  _395
REMARK  172  A    between atoms: _405  and  _407
REMARK  173  A    between atoms: _407  and  _408
REMARK  174  A    between atoms: _410  and  _412
REMARK  175  A    between atoms: _412  and  _413
REMARK  176  A    between atoms: _412  and  _415
REMARK  177  A    between atoms: _415  and  _416
REMARK  178  A    between atoms: _416  and  _417
REMARK  179  A    between atoms: _420  and  _422
REMARK  180  A    between atoms: _422  and  _423
REMARK  181  A    between atoms: _425  and  _427
REMARK  182  A    between atoms: _427  and  _428
REMARK  183  A    between atoms: _427  and  _430
REMARK  184  A    between atoms: _430  and  _431
REMARK  185  A    between atoms: _432  and  _434
REMARK  186  A    between atoms: _434  and  _435
REMARK  187  A    between atoms: _438  and  _440
REMARK  188  A    between atoms: _440  and  _441
REMARK  189  A    between atoms: _440  and  _443
REMARK  190  A    between atoms: _443  and  _444
REMARK  191  A    between atoms: _444  and  _445
REMARK  192  A    between atoms: _445  and  _446
REMARK  193  A    between atoms: _455  and  _457
REMARK  194  A    between atoms: _457  and  _458
REMARK  195  A    between atoms: _457  and  _460
REMARK  196  A    between atoms: _460  and  _461
REMARK  197  A    between atoms: _461  and  _462
REMARK  198  A    between atoms: _462  and  _463
REMARK  199  A    between atoms: _463  and  _464
REMARK  200  A    between atoms: _468  and  _470
REMARK  201  A    between atoms: _470  and  _471
REMARK  202  A    between atoms: _470  and  _473
REMARK  203  A    between atoms: _473  and  _474
REMARK  204  A    between atoms: _479  and  _480
REMARK  205  A    between atoms: _482  and  _484
REMARK  206  A    between atoms: _484  and  _485
REMARK  207  A    between atoms: _487  and  _489
REMARK  208  A    between atoms: _489  and  _490
REMARK  209  A    between atoms: _489  and  _492
REMARK  210  A    between atoms: _492  and  _493
REMARK  211  A    between atoms: _496  and  _498
REMARK  212  A    between atoms: _498  and  _499
REMARK  213  A    between atoms: _498  and  _501
REMARK  214  A    between atoms: _501  and  _502
REMARK  215  A    between atoms: _507  and  _508
REMARK  216  A    between atoms: _510  and  _512
REMARK  217  A    between atoms: _512  and  _513
REMARK  218  A    between atoms: _512  and  _515
REMARK  219  A    between atoms: _515  and  _516
REMARK                            x       y       z     vdW  Elec       q    Type
REMARK                         _______ _______ _______ _____ _____    ______ ____
ROOT
ATOM      1  C   PHE A   3     -10.531   0.945  19.390  0.00  0.00    +0.241 C 
ATOM      2  O   PHE A   3     -10.513   0.330  20.459  0.00  0.00    -0.273 OA
ATOM      3  N   ILE A   4     -10.165   0.414  18.232  0.00  0.00    -0.297 N 
ATOM      4  H   ILE A   4     -10.177   1.009  17.379  0.00  0.00    +0.150 HD
ENDROOT
BRANCH   3   5
ATOM      5  CA  ILE A   4      -9.751  -0.963  18.116  0.00  0.00    +0.149 C 
BRANCH   5   6
ATOM      6  C   ILE A   4      -8.372  -1.155  18.734  0.00  0.00    +0.241 C 
ATOM      7  N   ILE A   5      -8.245  -2.197  19.548  0.00  0.00    -0.297 N 
ATOM      8  H   ILE A   5      -9.072  -2.807  19.706  0.00  0.00    +0.150 HD
ATOM      9  O   ILE A   4      -7.448  -0.384  18.476  0.00  0.00    -0.273 OA
BRANCH   7  10
ATOM     10  CA  ILE A   5      -7.006  -2.522  20.225  0.00  0.00    +0.149 C 
BRANCH  10  11
ATOM     11  C   ILE A   5      -6.488  -3.762  19.561  0.00  0.00    +0.241 C 
ATOM     12  O   ILE A   5      -7.072  -4.826  19.712  0.00  0.00    -0.273 OA
ATOM     13  N   THR A   6      -5.388  -3.642  18.827  0.00  0.00    -0.296 N 
ATOM     14  H   THR A   6      -4.944  -2.709  18.710  0.00  0.00    +0.150 HD
BRANCH  13  15
ATOM     15  CA  THR A   6      -4.799  -4.810  18.184  0.00  0.00    +0.164 C 
BRANCH  15  16
ATOM     16  CB  THR A   6      -4.004  -4.418  16.966  0.00  0.00    +0.136 C 
ATOM     17  CG2 THR A   6      -4.788  -3.379  16.160  0.00  0.00    +0.034 C 
BRANCH  16  18
ATOM     18  OG1 THR A   6      -2.735  -3.898  17.388  0.00  0.00    -0.382 OA
ATOM     19  HG1 THR A   6      -2.206  -3.638  16.593  0.00  0.00    +0.210 HD
ENDBRANCH  16  18
ENDBRANCH  15  16
BRANCH  15  20
ATOM     20  C   THR A   6      -3.887  -5.571  19.133  0.00  0.00    +0.229 C 
ATOM     21  O   THR A   6      -3.713  -5.164  20.282  0.00  0.00    -0.286 OA
ENDBRANCH  15  20
ENDBRANCH  13  15
ENDBRANCH  10  11
BRANCH  10  22
ATOM     22  CB  ILE A   5      -7.263  -2.857  21.716  0.00  0.00    +0.027 C 
ATOM     23  CG2 ILE A   5      -5.974  -3.278  22.436  0.00  0.00    +0.002 C 
BRANCH  22  24
ATOM     24  CG1 ILE A   5      -7.979  -1.701  22.430  0.00  0.00    +0.002 C 
ATOM     25  CD1 ILE A   5      -7.324  -0.373  22.285  0.00  0.00    +0.000 C 
ENDBRANCH  22  24
ENDBRANCH  10  22
ENDBRANCH   7  10
ENDBRANCH   5   6
BRANCH   5  26
ATOM     26  CB  ILE A   4      -9.693  -1.371  16.660  0.00  0.00    +0.027 C 
ATOM     27  CG2 ILE A   4      -8.888  -0.349  15.891  0.00  0.00    +0.002 C 
BRANCH  26  28
ATOM     28  CG1 ILE A   4      -9.076  -2.765  16.525  0.00  0.00    +0.002 C 
ATOM     29  CD1 ILE A   4      -9.165  -3.328  15.111  0.00  0.00    +0.000 C 
ENDBRANCH  26  28
ENDBRANCH   5  26
ENDBRANCH   3   5
BRANCH   1  30
ATOM     30  CA  PHE A   3     -10.987   2.387  19.325  0.00  0.00    +0.153 C 
BRANCH  30  32
ATOM     31  C   SER A   2     -13.041   3.236  20.255  0.00  0.00    +0.243 C 
ATOM     32  N   PHE A   3     -11.843   2.710  20.463  0.00  0.00    -0.297 N 
ATOM     33  H   PHE A   3     -11.514   2.528  21.433  0.00  0.00    +0.150 HD
ATOM     34  O   SER A   2     -13.494   3.407  19.125  0.00  0.00    -0.273 OA
BRANCH  31  35
ATOM     35  CA  SER A   2     -13.841   3.649  21.483  0.00  0.00    +0.178 C 
BRANCH  35  37
ATOM     36  C   SER A   1     -13.101   1.955  23.080  0.00  0.00    +0.241 C 
ATOM     37  N   SER A   2     -13.185   3.233  22.716  0.00  0.00    -0.295 N 
ATOM     38  H   SER A   2     -12.768   3.959  23.333  0.00  0.00    +0.150 HD
ATOM     39  O   SER A   1     -13.611   1.035  22.443  0.00  0.00    -0.274 OA
BRANCH  36  40
ATOM     40  CA  SER A   1     -12.255   1.668  24.314  0.00  0.00    +0.174 C 
BRANCH  40  41
ATOM     41  N   SER A   1     -12.868   0.808  25.326  0.00  0.00    -0.236 NA
ATOM     42  H   SER A   1     -13.127  -0.169  25.080  0.00  0.00    +0.142 HD
ENDBRANCH  40  41
BRANCH  40  43
ATOM     43  CB  SER A   1     -10.916   1.070  23.849  0.00  0.00    +0.163 C 
BRANCH  43  44
ATOM     44  OG  SER A   1     -10.420   1.768  22.710  0.00  0.00    -0.380 OA
ATOM     45  H   SER A   1     -11.075   1.699  21.971  0.00  0.00    +0.211 HD
ENDBRANCH  43  44
ENDBRANCH  40  43
ENDBRANCH  36  40
ENDBRANCH  35  37
BRANCH  35  46
ATOM     46  CB  SER A   2     -14.002   5.166  21.448  0.00  0.00    +0.166 C 
BRANCH  46  47
ATOM     47  OG  SER A   2     -14.273   5.684  22.738  0.00  0.00    -0.380 OA
ATOM     48  H   SER A   2     -13.525   5.460  23.346  0.00  0.00    +0.211 HD
ENDBRANCH  46  47
ENDBRANCH  35  46
ENDBRANCH  31  35
ENDBRANCH  30  32
BRANCH  30  49
ATOM     49  CB  PHE A   3      -9.772   3.323  19.259  0.00  0.00    +0.055 C 
BRANCH  49  50
ATOM     50  CG  PHE A   3     -10.128   4.776  19.086  0.00  0.00    -0.020 A 
ATOM     51  CD2 PHE A   3     -10.487   5.555  20.181  0.00  0.00    -0.004 A 
ATOM     52  CE2 PHE A   3     -10.807   6.898  20.029  0.00  0.00    -0.000 A 
ATOM     53  CZ  PHE A   3     -10.788   7.468  18.775  0.00  0.00    -0.000 A 
ATOM     54  CE1 PHE A   3     -10.438   6.703  17.676  0.00  0.00    -0.000 A 
ATOM     55  CD1 PHE A   3     -10.110   5.364  17.832  0.00  0.00    -0.004 A 
ENDBRANCH  49  50
ENDBRANCH  30  49
ENDBRANCH   1  30
TORSDOF 24
REMARK  Name = ../refined-set-2016/2vvu/2vvu_pocket.pdb
REMARK  219 active torsions:
REMARK  status: ('A' for Active; 'I' for Inactive)
REMARK    1  A    between atoms: _1  and  _5
REMARK    2  A    between atoms: _5  and  _6
REMARK    3  A    between atoms: _5  and  _8
REMARK    4  A    between atoms: _8  and  _9
REMARK    5  A    between atoms: _12  and  _14
REMARK    6  A    between atoms: _14  and  _15
REMARK    7  A    between atoms: _14  and  _17
REMARK    8  A    between atoms: _20  and  _22
REMARK    9  A    between atoms: _22  and  _23
REMARK   10  A    between atoms: _22  and  _25
REMARK   11  A    between atoms: _25  and  _26
REMARK   12  A    between atoms: _31  and  _33
REMARK   13  A    between atoms: _33  and  _34
REMARK   14  A    between atoms: _33  and  _36
REMARK   15  A    between atoms: _36  and  _37
REMARK   16  A    between atoms: _37  and  _38
REMARK   17  A    between atoms: _43  and  _45
REMARK   18  A    between atoms: _45  and  _46
REMARK   19  A    between atoms: _45  and  _48
REMARK   20  A    between atoms: _48  and  _49
REMARK   21  A    between atoms: _52  and  _54
REMARK   22  A    between atoms: _54  and  _55
REMARK   23  A    between atoms: _54  and  _57
REMARK   24  A    between atoms: _57  and  _58
REMARK   25  A    between atoms: _58  and  _59
REMARK   26  A    between atoms: _59  and  _60
REMARK   27  A    between atoms: _60  and  _61
REMARK   28  A    between atoms: _65  and  _67
REMARK   29  A    between atoms: _67  and  _68
REMARK   30  A    between atoms: _67  and  _70
REMARK   31  A    between atoms: _70  and  _71
REMARK   32  A    between atoms: _71  and  _72
REMARK   33  A    between atoms: _75  and  _77
REMARK   34  A    between atoms: _77  and  _78
REMARK   35  A    between atoms: _77  and  _80
REMARK   36  A    between atoms: _80  and  _81
REMARK   37  A    between atoms: _84  and  _86
REMARK   38  A    between atoms: _86  and  _87
REMARK   39  A    between atoms: _86  and  _89
REMARK   40  A    between atoms: _89  and  _90
REMARK   41  A    between atoms: _95  and  _96
REMARK   42  A    between atoms: _98  and  _100
REMARK   43  A    between atoms: _100  and  _101
REMARK   44  A    between atoms: _100  and  _103
REMARK   45  A    between atoms: _103  and  _104
REMARK   46  A    between atoms: _107  and  _109
REMARK   47  A    between atoms: _109  and  _110
REMARK   48  A    between atoms: _109  and  _112
REMARK   49  A    between atoms: _112  and  _113
REMARK   50  A    between atoms: _116  and  _118
REMARK   51  A    between atoms: _118  and  _119
REMARK   52  A    between atoms: _118  and  _121
REMARK   53  A    between atoms: _124  and  _126
REMARK   54  A    between atoms: _126  and  _127
REMARK   55  A    between atoms: _126  and  _129
REMARK   56  A    between atoms: _129  and  _130
REMARK   57  A    between atoms: _130  and  _131
REMARK   58  A    between atoms: _131  and  _132
REMARK   59  A    between atoms: _141  and  _143
REMARK   60  A    between atoms: _143  and  _144
REMARK   61  A    between atoms: _143  and  _146
REMARK   62  A    between atoms: _146  and  _147
REMARK   63  A    between atoms: _152  and  _154
REMARK   64  A    between atoms: _154  and  _155
REMARK   65  A    between atoms: _154  and  _157
REMARK   66  A    between atoms: _157  and  _158
REMARK   67  A    between atoms: _158  and  _159
REMARK   68  A    between atoms: _162  and  _164
REMARK   69  A    between atoms: _164  and  _165
REMARK   70  A    between atoms: _164  and  _167
REMARK   71  A    between atoms: _167  and  _168
REMARK   72  A    between atoms: _168  and  _169
REMARK   73  A    between atoms: _169  and  _170
REMARK   74  A    between atoms: _170  and  _171
REMARK   75  A    between atoms: _175  and  _177
REMARK   76  A    between atoms: _177  and  _178
REMARK   77  A    between atoms: _177  and  _180
REMARK   78  A    between atoms: _183  and  _185
REMARK   79  A    between atoms: _185  and  _186
REMARK   80  A    between atoms: _185  and  _188
REMARK   81  A    between atoms: _188  and  _189
REMARK   82  A    between atoms: _191  and  _193
REMARK   83  A    between atoms: _193  and  _194
REMARK   84  A    between atoms: _193  and  _196
REMARK   85  A    between atoms: _196  and  _197
REMARK   86  A    between atoms: _199  and  _201
REMARK   87  A    between atoms: _201  and  _202
REMARK   88  A    between atoms: _201  and  _204
REMARK   89  A    between atoms: _204  and  _205
REMARK   90  A    between atoms: _211  and  _213
REMARK   91  A    between atoms: _213  and  _214
REMARK   92  A    between atoms: _213  and  _216
REMARK   93  A    between atoms: _216  and  _217
REMARK   94  A    between atoms: _220  and  _222
REMARK   95  A    between atoms: _222  and  _223
REMARK   96  A    between atoms: _222  and  _225
REMARK   97  A    between atoms: _225  and  _226
REMARK   98  A    between atoms: _229  and  _231
REMARK   99  A    between atoms: _231  and  _232
REMARK  100  A    between atoms: _231  and  _234
REMARK  101  A    between atoms: _234  and  _235
REMARK  102  A    between atoms: _238  and  _240
REMARK  103  A    between atoms: _240  and  _241
REMARK  104  A    between atoms: _240  and  _243
REMARK  105  A    between atoms: _243  and  _244
REMARK  106  A    between atoms: _244  and  _245
REMARK  107  A    between atoms: _247  and  _249
REMARK  108  A    between atoms: _249  and  _250
REMARK  109  A    between atoms: _249  and  _252
REMARK  110  A    between atoms: _252  and  _253
REMARK  111  A    between atoms: _259  and  _261
REMARK  112  A    between atoms: _261  and  _262
REMARK  113  A    between atoms: _261  and  _264
REMARK  114  A    between atoms: _266  and  _268
REMARK  115  A    between atoms: _268  and  _269
REMARK  116  A    between atoms: _272  and  _274
REMARK  117  A    between atoms: _274  and  _275
REMARK  118  A    between atoms: _277  and  _279
REMARK  119  A    between atoms: _279  and  _280
REMARK  120  A    between atoms: _279  and  _282
REMARK  121  A    between atoms: _282  and  _283
REMARK  122  A    between atoms: _283  and  _284
REMARK  123  A    between atoms: _287  and  _289
REMARK  124  A    between atoms: _289  and  _290
REMARK  125  A    between atoms: _289  and  _292
REMARK  126  A    between atoms: _292  and  _293
REMARK  127  A    between atoms: _296  and  _298
REMARK  128  A    between atoms: _298  and  _299
REMARK  129  A    between atoms: _302  and  _304
REMARK  130  A    between atoms: _304  and  _305
REMARK  131  A    between atoms: _304  and  _307
REMARK  132  A    between atoms: _307  and  _308
REMARK  133  A    between atoms: _308  and  _431
REMARK  134  A    between atoms: _309  and  _311
REMARK  135  A    between atoms: _311  and  _312
REMARK  136  A    between atoms: _311  and  _314
REMARK  137  A    between atoms: _314  and  _315
REMARK  138  A    between atoms: _315  and  _316
REMARK  139  A    between atoms: _321  and  _323
REMARK  140  A    between atoms: _323  and  _324
REMARK  141  A    between atoms: _326  and  _328
REMARK  142  A    between atoms: _328  and  _329
REMARK  143  A    between atoms: _328  and  _331
REMARK  144  A    between atoms: _331  and  _332
REMARK  145  A    between atoms: _335  and  _337
REMARK  146  A    between atoms: _337  and  _338
REMARK  147  A    between atoms: _337  and  _340
REMARK  148  A    between atoms: _340  and  _341
REMARK  149  A    between atoms: _343  and  _345
REMARK  150  A    between atoms: _345  and  _346
REMARK  151  A    between atoms: _348  and  _350
REMARK  152  A    between atoms: _350  and  _351
REMARK  153  A    between atoms: _353  and  _355
REMARK  154  A    between atoms: _355  and  _356
REMARK  155  A    between atoms: _355  and  _358
REMARK  156  A    between atoms: _358  and  _359
REMARK  157  A    between atoms: _364  and  _366
REMARK  158  A    between atoms: _366  and  _367
REMARK  159  A    between atoms: _366  and  _369
REMARK  160  A    between atoms: _369  and  _370
REMARK  161  A    between atoms: _373  and  _375
REMARK  162  A    between atoms: _375  and  _376
REMARK  163  A    between atoms: _375  and  _378
REMARK  164  A    between atoms: _381  and  _383
REMARK  165  A    between atoms: _383  and  _384
REMARK  166  A    between atoms: _383  and  _386
REMARK  167  A    between atoms: _386  and  _387
REMARK  168  A    between atoms: _389  and  _391
REMARK  169  A    between atoms: _391  and  _392
REMARK  170  A    between atoms: _391  and  _394
REMARK  171  A    between atoms: _394  and  _395
REMARK  172  A    between atoms: _405  and  _407
REMARK  173  A    between atoms: _407  and  _408
REMARK  174  A    between atoms: _410  and  _412
REMARK  175  A    between atoms: _412  and  _413
REMARK  176  A    between atoms: _412  and  _415
REMARK  177  A    between atoms: _415  and  _416
REMARK  178  A    between atoms: _416  and  _417
REMARK  179  A    between atoms: _420  and  _422
REMARK  180  A    between atoms: _422  and  _423
REMARK  181  A    between atoms: _425  and  _427
REMARK  182  A    between atoms: _427  and  _428
REMARK  183  A    between atoms: _427  and  _430
REMARK  184  A    between atoms: _430  and  _431
REMARK  185  A    between atoms: _432  and  _434
REMARK  186  A    between atoms: _434  and  _435
REMARK  187  A    between atoms: _438  and  _440
REMARK  188  A    between atoms: _440  and  _441
REMARK  189  A    between atoms: _440  and  _443
REMARK  190  A    between atoms: _443  and  _444
REMARK  191  A    between atoms: _444  and  _445
REMARK  192  A    between atoms: _445  and  _446
REMARK  193  A    between atoms: _455  and  _457
REMARK  194  A    between atoms: _457  and  _458
REMARK  195  A    between atoms: _457  and  _460
REMARK  196  A    between atoms: _460  and  _461
REMARK  197  A    between atoms: _461  and  _462
REMARK  198  A    between atoms: _462  and  _463
REMARK  199  A    between atoms: _463  and  _464
REMARK  200  A    between atoms: _468  and  _470
REMARK  201  A    between atoms: _470  and  _471
REMARK  202  A    between atoms: _470  and  _473
REMARK  203  A    between atoms: _473  and  _474
REMARK  204  A    between atoms: _479  and  _480
REMARK  205  A    between atoms: _482  and  _484
REMARK  206  A    between atoms: _484  and  _485
REMARK  207  A    between atoms: _487  and  _489
REMARK  208  A    between atoms: _489  and  _490
REMARK  209  A    between atoms: _489  and  _492
REMARK  210  A    between atoms: _492  and  _493
REMARK  211  A    between atoms: _496  and  _498
REMARK  212  A    between atoms: _498  and  _499
REMARK  213  A    between atoms: _498  and  _501
REMARK  214  A    between atoms: _501  and  _502
REMARK  215  A    between atoms: _507  and  _508
REMARK  216  A    between atoms: _510  and  _512
REMARK  217  A    between atoms: _512  and  _513
REMARK  218  A    between atoms: _512  and  _515
REMARK  219  A    between atoms: _515  and  _516
REMARK                            x       y       z     vdW  Elec       q    Type
REMARK                         _______ _______ _______ _____ _____    ______ ____
ROOT
ATOM      1  C   PHE A   2      -2.109  -2.248  26.471  0.00  0.00    +0.241 C 
ATOM      2  N   CYS A   3      -2.983  -2.528  27.431  0.00  0.00    -0.296 N 
ATOM      3  H   CYS A   3      -3.307  -3.509  27.552  0.00  0.00    +0.150 HD
ATOM      4  O   PHE A   2      -1.662  -1.107  26.259  0.00  0.00    -0.273 OA
ENDROOT
BRANCH   2   5
ATOM      5  CA  CYS A   3      -3.499  -1.494  28.318  0.00  0.00    +0.160 C 
BRANCH   5   6
ATOM      6  C   CYS A   3      -2.731  -1.485  29.635  0.00  0.00    +0.242 C 
ATOM      7  N   ALA A   4      -2.505  -0.296  30.195  0.00  0.00    -0.297 N 
ATOM      8  H   ALA A   4      -2.740   0.561  29.655  0.00  0.00    +0.150 HD
ATOM      9  O   CYS A   3      -2.378  -2.542  30.134  0.00  0.00    -0.273 OA
BRANCH   7  10
ATOM     10  CA  ALA A   4      -1.942  -0.147  31.532  0.00  0.00    +0.149 C 
ATOM     11  CB  ALA A   4      -0.440  -0.026  31.478  0.00  0.00    +0.031 C 
BRANCH  10  12
ATOM     12  C   ALA A   4      -2.533   1.074  32.219  0.00  0.00    +0.241 C 
ATOM     13  N   GLY A   5      -2.578   1.041  33.543  0.00  0.00    -0.296 N 
ATOM     14  H   GLY A   5      -2.245   0.196  34.050  0.00  0.00    +0.150 HD
ATOM     15  O   ALA A   4      -2.943   2.029  31.567  0.00  0.00    -0.273 OA
BRANCH  13  16
ATOM     16  CA  GLY A   5      -3.087   2.170  34.288  0.00  0.00    +0.163 C 
BRANCH  16  17
ATOM     17  C   GLY A   5      -4.276   1.830  35.163  0.00  0.00    +0.229 C 
ATOM     18  O   GLY A   5      -4.404   0.705  35.673  0.00  0.00    -0.286 OA
ENDBRANCH  16  17
ENDBRANCH  13  16
ENDBRANCH  10  12
ENDBRANCH   7  10
ENDBRANCH   5   6
BRANCH   5  19
ATOM     19  CB  CYS A   3      -4.993  -1.739  28.615  0.00  0.00    +0.098 C 
ATOM     20  SG  CYS A   3      -6.202  -0.894  27.547  0.00  0.00    -0.080 S 
ENDBRANCH   5  19
ENDBRANCH   2   5
BRANCH   1  21
ATOM     21  CA  PHE A   2      -1.702  -3.413  25.593  0.00  0.00    +0.153 C 
BRANCH  21  23
ATOM     22  C   MET A   1      -1.479  -3.673  23.214  0.00  0.00    +0.238 C 
ATOM     23  N   PHE A   2      -1.201  -2.963  24.295  0.00  0.00    -0.297 N 
ATOM     24  H   PHE A   2      -0.633  -2.095  24.223  0.00  0.00    +0.150 HD
ATOM     25  O   MET A   1      -1.974  -4.798  23.278  0.00  0.00    -0.274 OA
BRANCH  22  26
ATOM     26  CA  MET A   1      -1.148  -3.042  21.881  0.00  0.00    +0.146 C 
BRANCH  26  27
ATOM     27  N   MET A   1      -0.814  -4.050  20.875  0.00  0.00    -0.238 NA
ATOM     28  H   MET A   1      -1.450  -4.861  20.740  0.00  0.00    +0.142 HD
ENDBRANCH  26  27
BRANCH  26  29
ATOM     29  CB  MET A   1      -2.348  -2.226  21.432  0.00  0.00    +0.038 C 
BRANCH  29  30
ATOM     30  CG  MET A   1      -2.175  -1.485  20.097  0.00  0.00    +0.060 C 
BRANCH  30  31
ATOM     31  SD  MET A   1      -3.700  -0.558  19.752  0.00  0.00    -0.139 S 
ATOM     32  CE  MET A   1      -3.479  -0.048  18.024  0.00  0.00    +0.069 C 
ENDBRANCH  30  31
ENDBRANCH  29  30
ENDBRANCH  26  29
ENDBRANCH  22  26
ENDBRANCH  21  23
BRANCH  21  33
ATOM     33  CB  PHE A   2      -0.710  -4.349  26.302  0.00  0.00    +0.055 C 
BRANCH  33  34
ATOM     34  CG  PHE A   2       0.560  -3.674  26.773  0.00  0.00    -0.020 A 
ATOM     35  CD2 PHE A   2       0.632  -3.119  28.047  0.00  0.00    -0.004 A 
ATOM     36  CE2 PHE A   2       1.803  -2.520  28.502  0.00  0.00    -0.000 A 
ATOM     37  CZ  PHE A   2       2.922  -2.453  27.665  0.00  0.00    -0.000 A 
ATOM     38  CE1 PHE A   2       2.863  -3.001  26.383  0.00  0.00    -0.000 A 
ATOM     39  CD1 PHE A   2       1.690  -3.614  25.948  0.00  0.00    -0.004 A 
ENDBRANCH  33  34
ENDBRANCH  21  33
ENDBRANCH   1  21
TORSDOF 16
REMARK  Name = ../refined-set-2016/2vvu/2vvu_pocket.pdb
REMARK  219 active torsions:
REMARK  status: ('A' for Active; 'I' for Inactive)
REMARK    1  A    between atoms: _1  and  _5
REMARK    2  A    between atoms: _5  and  _6
REMARK    3  A    between atoms: _5  and  _8
REMARK    4  A    between atoms: _8  and  _9
REMARK    5  A    between atoms: _12  and  _14
REMARK    6  A    between atoms: _14  and  _15
REMARK    7  A    between atoms: _14  and  _17
REMARK    8  A    between atoms: _20  and  _22
REMARK    9  A    between atoms: _22  and  _23
REMARK   10  A    between atoms: _22  and  _25
REMARK   11  A    between atoms: _25  and  _26
REMARK   12  A    between atoms: _31  and  _33
REMARK   13  A    between atoms: _33  and  _34
REMARK   14  A    between atoms: _33  and  _36
REMARK   15  A    between atoms: _36  and  _37
REMARK   16  A    between atoms: _37  and  _38
REMARK   17  A    between atoms: _43  and  _45
REMARK   18  A    between atoms: _45  and  _46
REMARK   19  A    between atoms: _45  and  _48
REMARK   20  A    between atoms: _48  and  _49
REMARK   21  A    between atoms: _52  and  _54
REMARK   22  A    between atoms: _54  and  _55
REMARK   23  A    between atoms: _54  and  _57
REMARK   24  A    between atoms: _57  and  _58
REMARK   25  A    between atoms: _58  and  _59
REMARK   26  A    between atoms: _59  and  _60
REMARK   27  A    between atoms: _60  and  _61
REMARK   28  A    between atoms: _65  and  _67
REMARK   29  A    between atoms: _67  and  _68
REMARK   30  A    between atoms: _67  and  _70
REMARK   31  A    between atoms: _70  and  _71
REMARK   32  A    between atoms: _71  and  _72
REMARK   33  A    between atoms: _75  and  _77
REMARK   34  A    between atoms: _77  and  _78
REMARK   35  A    between atoms: _77  and  _80
REMARK   36  A    between atoms: _80  and  _81
REMARK   37  A    between atoms: _84  and  _86
REMARK   38  A    between atoms: _86  and  _87
REMARK   39  A    between atoms: _86  and  _89
REMARK   40  A    between atoms: _89  and  _90
REMARK   41  A    between atoms: _95  and  _96
REMARK   42  A    between atoms: _98  and  _100
REMARK   43  A    between atoms: _100  and  _101
REMARK   44  A    between atoms: _100  and  _103
REMARK   45  A    between atoms: _103  and  _104
REMARK   46  A    between atoms: _107  and  _109
REMARK   47  A    between atoms: _109  and  _110
REMARK   48  A    between atoms: _109  and  _112
REMARK   49  A    between atoms: _112  and  _113
REMARK   50  A    between atoms: _116  and  _118
REMARK   51  A    between atoms: _118  and  _119
REMARK   52  A    between atoms: _118  and  _121
REMARK   53  A    between atoms: _124  and  _126
REMARK   54  A    between atoms: _126  and  _127
REMARK   55  A    between atoms: _126  and  _129
REMARK   56  A    between atoms: _129  and  _130
REMARK   57  A    between atoms: _130  and  _131
REMARK   58  A    between atoms: _131  and  _132
REMARK   59  A    between atoms: _141  and  _143
REMARK   60  A    between atoms: _143  and  _144
REMARK   61  A    between atoms: _143  and  _146
REMARK   62  A    between atoms: _146  and  _147
REMARK   63  A    between atoms: _152  and  _154
REMARK   64  A    between atoms: _154  and  _155
REMARK   65  A    between atoms: _154  and  _157
REMARK   66  A    between atoms: _157  and  _158
REMARK   67  A    between atoms: _158  and  _159
REMARK   68  A    between atoms: _162  and  _164
REMARK   69  A    between atoms: _164  and  _165
REMARK   70  A    between atoms: _164  and  _167
REMARK   71  A    between atoms: _167  and  _168
REMARK   72  A    between atoms: _168  and  _169
REMARK   73  A    between atoms: _169  and  _170
REMARK   74  A    between atoms: _170  and  _171
REMARK   75  A    between atoms: _175  and  _177
REMARK   76  A    between atoms: _177  and  _178
REMARK   77  A    between atoms: _177  and  _180
REMARK   78  A    between atoms: _183  and  _185
REMARK   79  A    between atoms: _185  and  _186
REMARK   80  A    between atoms: _185  and  _188
REMARK   81  A    between atoms: _188  and  _189
REMARK   82  A    between atoms: _191  and  _193
REMARK   83  A    between atoms: _193  and  _194
REMARK   84  A    between atoms: _193  and  _196
REMARK   85  A    between atoms: _196  and  _197
REMARK   86  A    between atoms: _199  and  _201
REMARK   87  A    between atoms: _201  and  _202
REMARK   88  A    between atoms: _201  and  _204
REMARK   89  A    between atoms: _204  and  _205
REMARK   90  A    between atoms: _211  and  _213
REMARK   91  A    between atoms: _213  and  _214
REMARK   92  A    between atoms: _213  and  _216
REMARK   93  A    between atoms: _216  and  _217
REMARK   94  A    between atoms: _220  and  _222
REMARK   95  A    between atoms: _222  and  _223
REMARK   96  A    between atoms: _222  and  _225
REMARK   97  A    between atoms: _225  and  _226
REMARK   98  A    between atoms: _229  and  _231
REMARK   99  A    between atoms: _231  and  _232
REMARK  100  A    between atoms: _231  and  _234
REMARK  101  A    between atoms: _234  and  _235
REMARK  102  A    between atoms: _238  and  _240
REMARK  103  A    between atoms: _240  and  _241
REMARK  104  A    between atoms: _240  and  _243
REMARK  105  A    between atoms: _243  and  _244
REMARK  106  A    between atoms: _244  and  _245
REMARK  107  A    between atoms: _247  and  _249
REMARK  108  A    between atoms: _249  and  _250
REMARK  109  A    between atoms: _249  and  _252
REMARK  110  A    between atoms: _252  and  _253
REMARK  111  A    between atoms: _259  and  _261
REMARK  112  A    between atoms: _261  and  _262
REMARK  113  A    between atoms: _261  and  _264
REMARK  114  A    between atoms: _266  and  _268
REMARK  115  A    between atoms: _268  and  _269
REMARK  116  A    between atoms: _272  and  _274
REMARK  117  A    between atoms: _274  and  _275
REMARK  118  A    between atoms: _277  and  _279
REMARK  119  A    between atoms: _279  and  _280
REMARK  120  A    between atoms: _279  and  _282
REMARK  121  A    between atoms: _282  and  _283
REMARK  122  A    between atoms: _283  and  _284
REMARK  123  A    between atoms: _287  and  _289
REMARK  124  A    between atoms: _289  and  _290
REMARK  125  A    between atoms: _289  and  _292
REMARK  126  A    between atoms: _292  and  _293
REMARK  127  A    between atoms: _296  and  _298
REMARK  128  A    between atoms: _298  and  _299
REMARK  129  A    between atoms: _302  and  _304
REMARK  130  A    between atoms: _304  and  _305
REMARK  131  A    between atoms: _304  and  _307
REMARK  132  A    between atoms: _307  and  _308
REMARK  133  A    between atoms: _308  and  _431
REMARK  134  A    between atoms: _309  and  _311
REMARK  135  A    between atoms: _311  and  _312
REMARK  136  A    between atoms: _311  and  _314
REMARK  137  A    between atoms: _314  and  _315
REMARK  138  A    between atoms: _315  and  _316
REMARK  139  A    between atoms: _321  and  _323
REMARK  140  A    between atoms: _323  and  _324
REMARK  141  A    between atoms: _326  and  _328
REMARK  142  A    between atoms: _328  and  _329
REMARK  143  A    between atoms: _328  and  _331
REMARK  144  A    between atoms: _331  and  _332
REMARK  145  A    between atoms: _335  and  _337
REMARK  146  A    between atoms: _337  and  _338
REMARK  147  A    between atoms: _337  and  _340
REMARK  148  A    between atoms: _340  and  _341
REMARK  149  A    between atoms: _343  and  _345
REMARK  150  A    between atoms: _345  and  _346
REMARK  151  A    between atoms: _348  and  _350
REMARK  152  A    between atoms: _350  and  _351
REMARK  153  A    between atoms: _353  and  _355
REMARK  154  A    between atoms: _355  and  _356
REMARK  155  A    between atoms: _355  and  _358
REMARK  156  A    between atoms: _358  and  _359
REMARK  157  A    between atoms: _364  and  _366
REMARK  158  A    between atoms: _366  and  _367
REMARK  159  A    between atoms: _366  and  _369
REMARK  160  A    between atoms: _369  and  _370
REMARK  161  A    between atoms: _373  and  _375
REMARK  162  A    between atoms: _375  and  _376
REMARK  163  A    between atoms: _375  and  _378
REMARK  164  A    between atoms: _381  and  _383
REMARK  165  A    between atoms: _383  and  _384
REMARK  166  A    between atoms: _383  and  _386
REMARK  167  A    between atoms: _386  and  _387
REMARK  168  A    between atoms: _389  and  _391
REMARK  169  A    between atoms: _391  and  _392
REMARK  170  A    between atoms: _391  and  _394
REMARK  171  A    between atoms: _394  and  _395
REMARK  172  A    between atoms: _405  and  _407
REMARK  173  A    between atoms: _407  and  _408
REMARK  174  A    between atoms: _410  and  _412
REMARK  175  A    between atoms: _412  and  _413
REMARK  176  A    between atoms: _412  and  _415
REMARK  177  A    between atoms: _415  and  _416
REMARK  178  A    between atoms: _416  and  _417
REMARK  179  A    between atoms: _420  and  _422
REMARK  180  A    between atoms: _422  and  _423
REMARK  181  A    between atoms: _425  and  _427
REMARK  182  A    between atoms: _427  and  _428
REMARK  183  A    between atoms: _427  and  _430
REMARK  184  A    between atoms: _430  and  _431
REMARK  185  A    between atoms: _432  and  _434
REMARK  186  A    between atoms: _434  and  _435
REMARK  187  A    between atoms: _438  and  _440
REMARK  188  A    between atoms: _440  and  _441
REMARK  189  A    between atoms: _440  and  _443
REMARK  190  A    between atoms: _443  and  _444
REMARK  191  A    between atoms: _444  and  _445
REMARK  192  A    between atoms: _445  and  _446
REMARK  193  A    between atoms: _455  and  _457
REMARK  194  A    between atoms: _457  and  _458
REMARK  195  A    between atoms: _457  and  _460
REMARK  196  A    between atoms: _460  and  _461
REMARK  197  A    between atoms: _461  and  _462
REMARK  198  A    between atoms: _462  and  _463
REMARK  199  A    between atoms: _463  and  _464
REMARK  200  A    between atoms: _468  and  _470
REMARK  201  A    between atoms: _470  and  _471
REMARK  202  A    between atoms: _470  and  _473
REMARK  203  A    between atoms: _473  and  _474
REMARK  204  A    between atoms: _479  and  _480
REMARK  205  A    between atoms: _482  and  _484
REMARK  206  A    between atoms: _484  and  _485
REMARK  207  A    between atoms: _487  and  _489
REMARK  208  A    between atoms: _489  and  _490
REMARK  209  A    between atoms: _489  and  _492
REMARK  210  A    between atoms: _492  and  _493
REMARK  211  A    between atoms: _496  and  _498
REMARK  212  A    between atoms: _498  and  _499
REMARK  213  A    between atoms: _498  and  _501
REMARK  214  A    between atoms: _501  and  _502
REMARK  215  A    between atoms: _507  and  _508
REMARK  216  A    between atoms: _510  and  _512
REMARK  217  A    between atoms: _512  and  _513
REMARK  218  A    between atoms: _512  and  _515
REMARK  219  A    between atoms: _515  and  _516
REMARK                            x       y       z     vdW  Elec       q    Type
REMARK                         _______ _______ _______ _____ _____    ______ ____
ROOT
ATOM      1  CA  SER A   8      -5.393  11.428  30.377  0.00  0.00    +0.160 C 
ENDROOT
BRANCH   1   2
ATOM      2  N   SER A   8      -6.336  11.886  29.377  0.00  0.00    -0.296 N 
ATOM      3  H   SER A   8      -7.048  12.592  29.651  0.00  0.00    +0.150 HD
ATOM      4  C   ASP A   7      -6.329  11.442  28.126  0.00  0.00    +0.243 C 
ATOM      5  O   ASP A   7      -5.459  10.678  27.674  0.00  0.00    -0.273 OA
BRANCH   4   6
ATOM      6  CA  ASP A   7      -7.469  11.945  27.251  0.00  0.00    +0.176 C 
BRANCH   6   7
ATOM      7  N   ASP A   7      -7.741  11.039  26.133  0.00  0.00    -0.295 N 
ATOM      8  C   GLY A   6      -8.501   9.962  26.288  0.00  0.00    +0.241 C 
ATOM      9  O   GLY A   6      -9.190   9.768  27.294  0.00  0.00    -0.273 OA
ATOM     10  H   ASP A   7      -7.331  11.243  25.200  0.00  0.00    +0.150 HD
BRANCH   8  11
ATOM     11  CA  GLY A   6      -8.469   8.945  25.148  0.00  0.00    +0.149 C 
BRANCH  11  12
ATOM     12  N   GLY A   6      -7.344   8.035  25.386  0.00  0.00    -0.297 N 
ATOM     13  H   GLY A   6      -7.491   7.186  25.969  0.00  0.00    +0.150 HD
ATOM     14  C   GLN A   5      -6.142   8.271  24.874  0.00  0.00    +0.243 C 
ATOM     15  O   GLN A   5      -5.921   9.176  24.056  0.00  0.00    -0.273 OA
BRANCH  14  16
ATOM     16  CA  GLN A   5      -5.024   7.346  25.324  0.00  0.00    +0.176 C 
BRANCH  16  17
ATOM     17  N   GLN A   5      -3.964   7.385  24.335  0.00  0.00    -0.295 N 
ATOM     18  C   TRP A   4      -3.101   6.386  24.167  0.00  0.00    +0.241 C 
ATOM     19  O   TRP A   4      -3.062   5.394  24.900  0.00  0.00    -0.273 OA
ATOM     20  H   GLN A   5      -3.875   8.228  23.733  0.00  0.00    +0.150 HD
BRANCH  18  21
ATOM     21  CA  TRP A   4      -2.105   6.581  23.025  0.00  0.00    +0.153 C 
BRANCH  21  22
ATOM     22  N   TRP A   4      -0.928   5.700  23.085  0.00  0.00    -0.297 N 
ATOM     23  H   TRP A   4      -0.968   4.822  23.640  0.00  0.00    +0.150 HD
ATOM     24  C   SER A   3       0.191   6.020  22.432  0.00  0.00    +0.243 C 
ATOM     25  O   SER A   3       0.307   7.075  21.822  0.00  0.00    -0.273 OA
BRANCH  24  26
ATOM     26  CA  SER A   3       1.361   5.012  22.450  0.00  0.00    +0.178 C 
BRANCH  26  27
ATOM     27  N   SER A   3       1.992   4.867  23.761  0.00  0.00    -0.295 N 
ATOM     28  H   SER A   3       1.442   4.452  24.540  0.00  0.00    +0.150 HD
ATOM     29  C   VAL A   2       3.251   5.250  23.992  0.00  0.00    +0.241 C 
ATOM     30  O   VAL A   2       3.984   5.744  23.134  0.00  0.00    -0.273 OA
BRANCH  29  31
ATOM     31  CA  VAL A   2       3.798   4.989  25.382  0.00  0.00    +0.148 C 
BRANCH  31  32
ATOM     32  N   VAL A   2       4.992   4.169  25.215  0.00  0.00    -0.297 N 
ATOM     33  H   VAL A   2       5.899   4.461  25.633  0.00  0.00    +0.150 HD
ATOM     34  C   ILE A   1       4.898   3.036  24.515  0.00  0.00    +0.238 C 
ATOM     35  O   ILE A   1       3.811   2.589  24.092  0.00  0.00    -0.274 OA
BRANCH  34  36
ATOM     36  CA  ILE A   1       6.161   2.254  24.303  0.00  0.00    +0.145 C 
BRANCH  36  37
ATOM     37  CB  ILE A   1       6.502   2.301  22.814  0.00  0.00    +0.025 C 
ATOM     38  CG2 ILE A   1       6.648   3.757  22.339  0.00  0.00    +0.002 C 
BRANCH  37  39
ATOM     39  CG1 ILE A   1       7.761   1.490  22.521  0.00  0.00    +0.002 C 
ATOM     40  CD1 ILE A   1       7.897   1.081  21.037  0.00  0.00    +0.000 C 
ENDBRANCH  37  39
ENDBRANCH  36  37
BRANCH  36  41
ATOM     41  N   ILE A   1       5.853   0.892  24.730  0.00  0.00    -0.238 NA
ATOM     42  H   ILE A   1       5.048   0.401  24.291  0.00  0.00    +0.142 HD
ENDBRANCH  36  41
ENDBRANCH  34  36
ENDBRANCH  31  32
BRANCH  31  43
ATOM     43  CB  VAL A   2       4.075   6.305  26.104  0.00  0.00    +0.027 C 
ATOM     44  CG2 VAL A   2       4.662   6.029  27.473  0.00  0.00    +0.002 C 
ATOM     45  CG1 VAL A   2       2.791   7.087  26.245  0.00  0.00    +0.002 C 
ENDBRANCH  31  43
ENDBRANCH  29  31
ENDBRANCH  26  27
BRANCH  26  46
ATOM     46  CB  SER A   3       0.899   3.647  21.900  0.00  0.00    +0.166 C 
BRANCH  46  47
ATOM     47  OG  SER A   3       0.462   3.728  20.533  0.00  0.00    -0.380 OA
ATOM     48  H   SER A   3       0.176   2.831  20.225  0.00  0.00    +0.211 HD
ENDBRANCH  46  47
ENDBRANCH  26  46
ENDBRANCH  24  26
ENDBRANCH  21  22
BRANCH  21  49
ATOM     49  CB  TRP A   4      -2.819   6.497  21.657  0.00  0.00    +0.057 C 
BRANCH  49  50
ATOM     50  CG  TRP A   4      -3.302   5.102  21.318  0.00  0.00    -0.002 A 
ATOM     51  CD2 TRP A   4      -4.620   4.586  21.499  0.00  0.00    +0.013 A 
ATOM     52  CE3 TRP A   4      -5.812   5.127  21.992  0.00  0.00    +0.001 A 
ATOM     53  CZ3 TRP A   4      -6.945   4.327  22.021  0.00  0.00    +0.000 A 
ATOM     54  CH2 TRP A   4      -6.907   2.994  21.584  0.00  0.00    +0.001 A 
ATOM     55  CZ2 TRP A   4      -5.758   2.435  21.096  0.00  0.00    +0.017 A 
ATOM     56  CE2 TRP A   4      -4.612   3.245  21.056  0.00  0.00    +0.056 A 
ATOM     57  NE1 TRP A   4      -3.342   2.954  20.634  0.00  0.00    -0.352 N 
ATOM     58  HE1 TRP A   4      -3.019   2.037  20.265  0.00  0.00    +0.166 HD
ATOM     59  CD1 TRP A   4      -2.565   4.080  20.780  0.00  0.00    +0.068 A 
ENDBRANCH  49  50
ENDBRANCH  21  49
ENDBRANCH  18  21
ENDBRANCH  16  17
ENDBRANCH  14  16
ENDBRANCH  11  12
BRANCH  11  60
ATOM     60  CB  GLY A   6      -9.789   8.171  25.089  0.00  0.00    +0.041 C 
BRANCH  60  61
ATOM     61  CG  GLY A   6      -9.810   7.020  24.081  0.00  0.00    +0.116 C 
BRANCH  61  62
ATOM     62  CD  GLY A   6     -11.205   6.451  23.882  0.00  0.00    +0.365 C 
ATOM     63  OE2 GLY A   6     -12.195   7.183  24.133  0.00  0.00    -0.246 OA
ATOM     64  OE1 GLY A   6     -11.318   5.275  23.470  0.00  0.00    -0.246 OA
ENDBRANCH  61  62
ENDBRANCH  60  61
ENDBRANCH  11  60
ENDBRANCH   8  11
ENDBRANCH   6   7
ENDBRANCH   4   6
ENDBRANCH   1   2
BRANCH   1  65
ATOM     65  C   SER A   8      -6.128  11.170  31.670  0.00  0.00    +0.242 C 
ATOM     66  N   GLY A   9      -5.883   9.998  32.248  0.00  0.00    -0.297 N 
ATOM     67  H   GLY A   9      -5.230   9.339  31.778  0.00  0.00    +0.150 HD
ATOM     68  O   SER A   8      -6.892  12.015  32.135  0.00  0.00    -0.273 OA
BRANCH  66  69
ATOM     69  CA  GLY A   9      -6.494   9.594  33.520  0.00  0.00    +0.149 C 
ATOM     70  CB  GLY A   9      -5.961  10.444  34.671  0.00  0.00    +0.031 C 
BRANCH  69  71
ATOM     71  C   GLY A   9      -8.020   9.584  33.553  0.00  0.00    +0.241 C 
ATOM     72  O   GLY A   9      -8.595   9.573  34.637  0.00  0.00    -0.273 OA
ATOM     73  N   GLY A  10      -8.683   9.580  32.398  0.00  0.00    -0.298 N 
ATOM     74  H   GLY A  10      -8.163   9.593  31.498  0.00  0.00    +0.150 HD
BRANCH  73  75
ATOM     75  CA  GLY A  10     -10.146   9.557  32.400  0.00  0.00    +0.137 C 
BRANCH  75  76
ATOM     76  C   GLY A  10     -10.711   8.273  32.998  0.00  0.00    +0.227 C 
ATOM     77  O   GLY A  10     -10.133   7.193  32.863  0.00  0.00    -0.286 OA
ENDBRANCH  75  76
BRANCH  75  78
ATOM     78  CB  GLY A  10     -10.701   9.732  31.003  0.00  0.00    +0.031 C 
BRANCH  78  79
ATOM     79  CG  GLY A  10     -10.360  11.058  30.385  0.00  0.00    +0.045 C 
BRANCH  79  80
ATOM     80  CD  GLY A  10     -11.148  11.233  29.110  0.00  0.00    +0.174 C 
BRANCH  80  81
ATOM     81  NE  GLY A  10     -10.695  12.375  28.319  0.00  0.00    -0.265 N 
ATOM     82  HE  GLY A  10      -9.956  12.989  28.718  0.00  0.00    +0.259 HD
ATOM     83  CZ  GLY A  10     -11.178  12.671  27.116  0.00  0.00    +0.342 C 
ATOM     84  NH2 GLY A  10     -12.116  11.907  26.583  0.00  0.00    -0.292 N 
ATOM     85 HH21 GLY A  10     -12.472  11.080  27.104  0.00  0.00    +0.255 HD
ATOM     86 HH22 GLY A  10     -12.498  12.133  25.642  0.00  0.00    +0.255 HD
ATOM     87  NH1 GLY A  10     -10.730  13.724  26.445  0.00  0.00    -0.292 N 
ATOM     88 HH11 GLY A  10      -9.992  14.329  26.859  0.00  0.00    +0.255 HD
ATOM     89 HH12 GLY A  10     -11.116  13.944  25.505  0.00  0.00    +0.255 HD
ENDBRANCH  80  81
ENDBRANCH  79  80
ENDBRANCH  78  79
ENDBRANCH  75  78
ENDBRANCH  73  75
ENDBRANCH  69  71
ENDBRANCH  66  69
ENDBRANCH   1  65
BRANCH   1  90
ATOM     90  CB  SER A   8      -4.333  12.485  30.635  0.00  0.00    +0.098 C 
BRANCH  90  91
ATOM     91  SG  SER A   8      -3.563  13.036  29.157  0.00  0.00    -0.080 S 
BRANCH  91  92
ATOM     92  SG  TRP A   4      -2.004  14.177  29.816  0.00  0.00    -0.080 S 
BRANCH  92  93
ATOM     93  CB  TRP A   4      -0.701  13.014  30.264  0.00  0.00    +0.098 C 
BRANCH  93  94
ATOM     94  CA  TRP A   4      -0.407  11.922  29.230  0.00  0.00    +0.160 C 
BRANCH  94  97
ATOM     95  C   SER A   3      -0.231   9.899  30.498  0.00  0.00    +0.241 C 
ATOM     96  O   SER A   3      -1.471   9.833  30.597  0.00  0.00    -0.273 OA
ATOM     97  N   TRP A   4       0.379  10.869  29.839  0.00  0.00    -0.296 N 
ATOM     98  H   TRP A   4       1.416  10.876  29.758  0.00  0.00    +0.150 HD
BRANCH  95  99
ATOM     99  CA  SER A   3       0.665   8.845  31.128  0.00  0.00    +0.149 C 
ATOM    100  CB  SER A   3       1.263   7.971  30.075  0.00  0.00    +0.031 C 
BRANCH  99 103
ATOM    101  C   VAL A   2      -0.614   8.568  33.149  0.00  0.00    +0.241 C 
ATOM    102  O   VAL A   2      -0.109   9.557  33.685  0.00  0.00    -0.273 OA
ATOM    103  N   SER A   3      -0.201   8.073  31.987  0.00  0.00    -0.297 N 
ATOM    104  H   SER A   3      -0.504   7.122  31.694  0.00  0.00    +0.150 HD
BRANCH 101 105
ATOM    105  CA  VAL A   2      -1.731   7.811  33.832  0.00  0.00    +0.160 C 
BRANCH 105 108
ATOM    106  C   ILE A   1      -2.746   7.806  35.974  0.00  0.00    +0.238 C 
ATOM    107  O   ILE A   1      -3.474   6.881  35.632  0.00  0.00    -0.274 OA
ATOM    108  N   VAL A   2      -1.831   8.311  35.175  0.00  0.00    -0.297 N 
ATOM    109  H   VAL A   2      -1.191   9.059  35.510  0.00  0.00    +0.150 HD
BRANCH 106 110
ATOM    110  CA  ILE A   1      -2.856   8.426  37.342  0.00  0.00    +0.145 C 
BRANCH 110 111
ATOM    111  N   ILE A   1      -4.278   8.574  37.631  0.00  0.00    -0.238 NA
ATOM    112  H   ILE A   1      -4.945   7.863  37.269  0.00  0.00    +0.142 HD
ENDBRANCH 110 111
BRANCH 110 113
ATOM    113  CB  ILE A   1      -2.156   7.537  38.376  0.00  0.00    +0.038 C 
BRANCH 113 114
ATOM    114  CG  ILE A   1      -2.044   8.186  39.749  0.00  0.00    +0.116 C 
BRANCH 114 115
ATOM    115  CD  ILE A   1      -1.141   7.416  40.673  0.00  0.00    +0.365 C 
ATOM    116  OE2 ILE A   1      -0.172   8.026  41.156  0.00  0.00    -0.246 OA
ATOM    117  OE1 ILE A   1      -1.385   6.208  40.898  0.00  0.00    -0.246 OA
ENDBRANCH 114 115
ENDBRANCH 113 114
ENDBRANCH 110 113
ENDBRANCH 106 110
ENDBRANCH 105 108
BRANCH 105 118
ATOM    118  CB  VAL A   2      -3.068   8.025  33.118  0.00  0.00    +0.143 C 
BRANCH 118 119
ATOM    119  CG  VAL A   2      -3.080   7.455  31.727  0.00  0.00    +0.367 C 
ATOM    120  OD2 VAL A   2      -2.257   6.576  31.446  0.00  0.00    -0.246 OA
ATOM    121  OD1 VAL A   2      -3.915   7.892  30.914  0.00  0.00    -0.246 OA
ENDBRANCH 118 119
ENDBRANCH 105 118
ENDBRANCH 101 105
ENDBRANCH  99 103
ENDBRANCH  95  99
ENDBRANCH  94  97
BRANCH  94 122
ATOM    122  C   TRP A   4       0.304  12.504  28.017  0.00  0.00    +0.242 C 
ATOM    123  N   GLN A   5      -0.177  13.667  27.576  0.00  0.00    -0.297 N 
ATOM    124  H   GLN A   5      -0.927  14.138  28.121  0.00  0.00    +0.150 HD
ATOM    125  O   TRP A   4       1.272  11.917  27.506  0.00  0.00    -0.273 OA
BRANCH 123 126
ATOM    126  CA  GLN A   5       0.309  14.299  26.363  0.00  0.00    +0.149 C 
BRANCH 126 127
ATOM    127  C   GLN A   5       1.755  14.728  26.551  0.00  0.00    +0.241 C 
ATOM    128  O   GLN A   5       2.055  15.471  27.484  0.00  0.00    -0.273 OA
ATOM    129  N   GLY A   6       2.644  14.262  25.671  0.00  0.00    -0.295 N 
ATOM    130  H   GLY A   6       2.307  13.688  24.872  0.00  0.00    +0.150 HD
BRANCH 129 131
ATOM    131  CA  GLY A   6       4.083  14.534  25.794  0.00  0.00    +0.176 C 
BRANCH 131 132
ATOM    132  C   GLY A   6       4.910  13.341  26.258  0.00  0.00    +0.243 C 
ATOM    133  N   ASP A   7       4.240  12.289  26.704  0.00  0.00    -0.296 N 
ATOM    134  H   ASP A   7       3.200  12.290  26.706  0.00  0.00    +0.150 HD
ATOM    135  O   GLY A   6       6.143  13.358  26.217  0.00  0.00    -0.273 OA
BRANCH 133 136
ATOM    136  CA  ASP A   7       4.973  11.134  27.190  0.00  0.00    +0.160 C 
BRANCH 136 137
ATOM    137  C   ASP A   7       5.177  10.133  26.060  0.00  0.00    +0.241 C 
ATOM    138  O   ASP A   7       6.125   9.340  26.089  0.00  0.00    -0.273 OA
ATOM    139  N   SER A   8       4.296  10.201  25.059  0.00  0.00    -0.295 N 
ATOM    140  H   SER A   8       3.576  10.951  25.090  0.00  0.00    +0.150 HD
BRANCH 139 141
ATOM    141  CA  SER A   8       4.285   9.273  23.910  0.00  0.00    +0.178 C 
BRANCH 141 142
ATOM    142  C   SER A   8       5.687   9.011  23.447  0.00  0.00    +0.243 C 
ATOM    143  O   SER A   8       6.494   9.925  23.446  0.00  0.00    -0.273 OA
ATOM    144  N   GLY A   9       5.978   7.768  23.064  0.00  0.00    -0.295 N 
ATOM    145  H   GLY A   9       5.224   7.052  23.064  0.00  0.00    +0.150 HD
BRANCH 144 146
ATOM    146  CA  GLY A   9       7.334   7.377  22.641  0.00  0.00    +0.176 C 
BRANCH 146 147
ATOM    147  C   GLY A   9       8.221   6.967  23.807  0.00  0.00    +0.243 C 
ATOM    148  N   GLY A  10       7.879   7.448  24.999  0.00  0.00    -0.296 N 
ATOM    149  H   GLY A  10       7.018   8.026  25.083  0.00  0.00    +0.150 HD
ATOM    150  O   GLY A   9       9.218   6.265  23.628  0.00  0.00    -0.273 OA
BRANCH 148 151
ATOM    151  CA  GLY A  10       8.682   7.186  26.199  0.00  0.00    +0.163 C 
BRANCH 151 152
ATOM    152  C   GLY A  10       8.525   5.757  26.724  0.00  0.00    +0.229 C 
ATOM    153  O   GLY A  10       7.652   5.003  26.259  0.00  0.00    -0.286 OA
ENDBRANCH 151 152
ENDBRANCH 148 151
ENDBRANCH 146 147
ENDBRANCH 144 146
ENDBRANCH 141 142
BRANCH 141 154
ATOM    154  CB  SER A   8       3.493   9.863  22.737  0.00  0.00    +0.166 C 
BRANCH 154 155
ATOM    155  OG  SER A   8       2.116   9.594  22.873  0.00  0.00    -0.380 OA
ATOM    156  H   SER A   8       1.627   9.984  22.105  0.00  0.00    +0.211 HD
ENDBRANCH 154 155
ENDBRANCH 141 154
ENDBRANCH 139 141
ENDBRANCH 136 137
BRANCH 136 157
ATOM    157  CB  ASP A   7       4.260  10.508  28.392  0.00  0.00    +0.143 C 
BRANCH 157 158
ATOM    158  CG  ASP A   7       4.315  11.389  29.627  0.00  0.00    +0.367 C 
ATOM    159  OD2 ASP A   7       3.259  11.646  30.255  0.00  0.00    -0.246 OA
ATOM    160  OD1 ASP A   7       5.425  11.823  29.983  0.00  0.00    -0.246 OA
ENDBRANCH 157 158
ENDBRANCH 136 157
ENDBRANCH 133 136
ENDBRANCH 131 132
ENDBRANCH 129 131
ENDBRANCH 126 127
BRANCH 126 161
ATOM    161  CB  GLN A   5      -0.561  15.507  26.028  0.00  0.00    +0.039 C 
BRANCH 161 162
ATOM    162  CG  GLN A   5      -0.055  16.343  24.858  0.00  0.00    +0.087 C 
BRANCH 162 163
ATOM    163  CD  GLN A   5      -0.348  15.707  23.500  0.00  0.00    +0.219 C 
ATOM    164  OE1 GLN A   5      -0.495  14.489  23.378  0.00  0.00    -0.275 OA
ATOM    165  NE2 GLN A   5      -0.430  16.541  22.471  0.00  0.00    -0.329 N 
ATOM    166 HE21 GLN A   5      -0.299  17.562  22.618  0.00  0.00    +0.145 HD
ATOM    167 HE22 GLN A   5      -0.625  16.173  21.518  0.00  0.00    +0.145 HD
ENDBRANCH 162 163
ENDBRANCH 161 162
ENDBRANCH 126 161
ENDBRANCH 123 126
ENDBRANCH  94 122
ENDBRANCH  93  94
ENDBRANCH  92  93
ENDBRANCH  91  92
ENDBRANCH  90  91
ENDBRANCH   1  90
TORSDOF 71
REMARK  Name = ../refined-set-2016/2vvu/2vvu_pocket.pdb
REMARK  219 active torsions:
REMARK  status: ('A' for Active; 'I' for Inactive)
REMARK    1  A    between atoms: _1  and  _5
REMARK    2  A    between atoms: _5  and  _6
REMARK    3  A    between atoms: _5  and  _8
REMARK    4  A    between atoms: _8  and  _9
REMARK    5  A    between atoms: _12  and  _14
REMARK    6  A    between atoms: _14  and  _15
REMARK    7  A    between atoms: _14  and  _17
REMARK    8  A    between atoms: _20  and  _22
REMARK    9  A    between atoms: _22  and  _23
REMARK   10  A    between atoms: _22  and  _25
REMARK   11  A    between atoms: _25  and  _26
REMARK   12  A    between atoms: _31  and  _33
REMARK   13  A    between atoms: _33  and  _34
REMARK   14  A    between atoms: _33  and  _36
REMARK   15  A    between atoms: _36  and  _37
REMARK   16  A    between atoms: _37  and  _38
REMARK   17  A    between atoms: _43  and  _45
REMARK   18  A    between atoms: _45  and  _46
REMARK   19  A    between atoms: _45  and  _48
REMARK   20  A    between atoms: _48  and  _49
REMARK   21  A    between atoms: _52  and  _54
REMARK   22  A    between atoms: _54  and  _55
REMARK   23  A    between atoms: _54  and  _57
REMARK   24  A    between atoms: _57  and  _58
REMARK   25  A    between atoms: _58  and  _59
REMARK   26  A    between atoms: _59  and  _60
REMARK   27  A    between atoms: _60  and  _61
REMARK   28  A    between atoms: _65  and  _67
REMARK   29  A    between atoms: _67  and  _68
REMARK   30  A    between atoms: _67  and  _70
REMARK   31  A    between atoms: _70  and  _71
REMARK   32  A    between atoms: _71  and  _72
REMARK   33  A    between atoms: _75  and  _77
REMARK   34  A    between atoms: _77  and  _78
REMARK   35  A    between atoms: _77  and  _80
REMARK   36  A    between atoms: _80  and  _81
REMARK   37  A    between atoms: _84  and  _86
REMARK   38  A    between atoms: _86  and  _87
REMARK   39  A    between atoms: _86  and  _89
REMARK   40  A    between atoms: _89  and  _90
REMARK   41  A    between atoms: _95  and  _96
REMARK   42  A    between atoms: _98  and  _100
REMARK   43  A    between atoms: _100  and  _101
REMARK   44  A    between atoms: _100  and  _103
REMARK   45  A    between atoms: _103  and  _104
REMARK   46  A    between atoms: _107  and  _109
REMARK   47  A    between atoms: _109  and  _110
REMARK   48  A    between atoms: _109  and  _112
REMARK   49  A    between atoms: _112  and  _113
REMARK   50  A    between atoms: _116  and  _118
REMARK   51  A    between atoms: _118  and  _119
REMARK   52  A    between atoms: _118  and  _121
REMARK   53  A    between atoms: _124  and  _126
REMARK   54  A    between atoms: _126  and  _127
REMARK   55  A    between atoms: _126  and  _129
REMARK   56  A    between atoms: _129  and  _130
REMARK   57  A    between atoms: _130  and  _131
REMARK   58  A    between atoms: _131  and  _132
REMARK   59  A    between atoms: _141  and  _143
REMARK   60  A    between atoms: _143  and  _144
REMARK   61  A    between atoms: _143  and  _146
REMARK   62  A    between atoms: _146  and  _147
REMARK   63  A    between atoms: _152  and  _154
REMARK   64  A    between atoms: _154  and  _155
REMARK   65  A    between atoms: _154  and  _157
REMARK   66  A    between atoms: _157  and  _158
REMARK   67  A    between atoms: _158  and  _159
REMARK   68  A    between atoms: _162  and  _164
REMARK   69  A    between atoms: _164  and  _165
REMARK   70  A    between atoms: _164  and  _167
REMARK   71  A    between atoms: _167  and  _168
REMARK   72  A    between atoms: _168  and  _169
REMARK   73  A    between atoms: _169  and  _170
REMARK   74  A    between atoms: _170  and  _171
REMARK   75  A    between atoms: _175  and  _177
REMARK   76  A    between atoms: _177  and  _178
REMARK   77  A    between atoms: _177  and  _180
REMARK   78  A    between atoms: _183  and  _185
REMARK   79  A    between atoms: _185  and  _186
REMARK   80  A    between atoms: _185  and  _188
REMARK   81  A    between atoms: _188  and  _189
REMARK   82  A    between atoms: _191  and  _193
REMARK   83  A    between atoms: _193  and  _194
REMARK   84  A    between atoms: _193  and  _196
REMARK   85  A    between atoms: _196  and  _197
REMARK   86  A    between atoms: _199  and  _201
REMARK   87  A    between atoms: _201  and  _202
REMARK   88  A    between atoms: _201  and  _204
REMARK   89  A    between atoms: _204  and  _205
REMARK   90  A    between atoms: _211  and  _213
REMARK   91  A    between atoms: _213  and  _214
REMARK   92  A    between atoms: _213  and  _216
REMARK   93  A    between atoms: _216  and  _217
REMARK   94  A    between atoms: _220  and  _222
REMARK   95  A    between atoms: _222  and  _223
REMARK   96  A    between atoms: _222  and  _225
REMARK   97  A    between atoms: _225  and  _226
REMARK   98  A    between atoms: _229  and  _231
REMARK   99  A    between atoms: _231  and  _232
REMARK  100  A    between atoms: _231  and  _234
REMARK  101  A    between atoms: _234  and  _235
REMARK  102  A    between atoms: _238  and  _240
REMARK  103  A    between atoms: _240  and  _241
REMARK  104  A    between atoms: _240  and  _243
REMARK  105  A    between atoms: _243  and  _244
REMARK  106  A    between atoms: _244  and  _245
REMARK  107  A    between atoms: _247  and  _249
REMARK  108  A    between atoms: _249  and  _250
REMARK  109  A    between atoms: _249  and  _252
REMARK  110  A    between atoms: _252  and  _253
REMARK  111  A    between atoms: _259  and  _261
REMARK  112  A    between atoms: _261  and  _262
REMARK  113  A    between atoms: _261  and  _264
REMARK  114  A    between atoms: _266  and  _268
REMARK  115  A    between atoms: _268  and  _269
REMARK  116  A    between atoms: _272  and  _274
REMARK  117  A    between atoms: _274  and  _275
REMARK  118  A    between atoms: _277  and  _279
REMARK  119  A    between atoms: _279  and  _280
REMARK  120  A    between atoms: _279  and  _282
REMARK  121  A    between atoms: _282  and  _283
REMARK  122  A    between atoms: _283  and  _284
REMARK  123  A    between atoms: _287  and  _289
REMARK  124  A    between atoms: _289  and  _290
REMARK  125  A    between atoms: _289  and  _292
REMARK  126  A    between atoms: _292  and  _293
REMARK  127  A    between atoms: _296  and  _298
REMARK  128  A    between atoms: _298  and  _299
REMARK  129  A    between atoms: _302  and  _304
REMARK  130  A    between atoms: _304  and  _305
REMARK  131  A    between atoms: _304  and  _307
REMARK  132  A    between atoms: _307  and  _308
REMARK  133  A    between atoms: _308  and  _431
REMARK  134  A    between atoms: _309  and  _311
REMARK  135  A    between atoms: _311  and  _312
REMARK  136  A    between atoms: _311  and  _314
REMARK  137  A    between atoms: _314  and  _315
REMARK  138  A    between atoms: _315  and  _316
REMARK  139  A    between atoms: _321  and  _323
REMARK  140  A    between atoms: _323  and  _324
REMARK  141  A    between atoms: _326  and  _328
REMARK  142  A    between atoms: _328  and  _329
REMARK  143  A    between atoms: _328  and  _331
REMARK  144  A    between atoms: _331  and  _332
REMARK  145  A    between atoms: _335  and  _337
REMARK  146  A    between atoms: _337  and  _338
REMARK  147  A    between atoms: _337  and  _340
REMARK  148  A    between atoms: _340  and  _341
REMARK  149  A    between atoms: _343  and  _345
REMARK  150  A    between atoms: _345  and  _346
REMARK  151  A    between atoms: _348  and  _350
REMARK  152  A    between atoms: _350  and  _351
REMARK  153  A    between atoms: _353  and  _355
REMARK  154  A    between atoms: _355  and  _356
REMARK  155  A    between atoms: _355  and  _358
REMARK  156  A    between atoms: _358  and  _359
REMARK  157  A    between atoms: _364  and  _366
REMARK  158  A    between atoms: _366  and  _367
REMARK  159  A    between atoms: _366  and  _369
REMARK  160  A    between atoms: _369  and  _370
REMARK  161  A    between atoms: _373  and  _375
REMARK  162  A    between atoms: _375  and  _376
REMARK  163  A    between atoms: _375  and  _378
REMARK  164  A    between atoms: _381  and  _383
REMARK  165  A    between atoms: _383  and  _384
REMARK  166  A    between atoms: _383  and  _386
REMARK  167  A    between atoms: _386  and  _387
REMARK  168  A    between atoms: _389  and  _391
REMARK  169  A    between atoms: _391  and  _392
REMARK  170  A    between atoms: _391  and  _394
REMARK  171  A    between atoms: _394  and  _395
REMARK  172  A    between atoms: _405  and  _407
REMARK  173  A    between atoms: _407  and  _408
REMARK  174  A    between atoms: _410  and  _412
REMARK  175  A    between atoms: _412  and  _413
REMARK  176  A    between atoms: _412  and  _415
REMARK  177  A    between atoms: _415  and  _416
REMARK  178  A    between atoms: _416  and  _417
REMARK  179  A    between atoms: _420  and  _422
REMARK  180  A    between atoms: _422  and  _423
REMARK  181  A    between atoms: _425  and  _427
REMARK  182  A    between atoms: _427  and  _428
REMARK  183  A    between atoms: _427  and  _430
REMARK  184  A    between atoms: _430  and  _431
REMARK  185  A    between atoms: _432  and  _434
REMARK  186  A    between atoms: _434  and  _435
REMARK  187  A    between atoms: _438  and  _440
REMARK  188  A    between atoms: _440  and  _441
REMARK  189  A    between atoms: _440  and  _443
REMARK  190  A    between atoms: _443  and  _444
REMARK  191  A    between atoms: _444  and  _445
REMARK  192  A    between atoms: _445  and  _446
REMARK  193  A    between atoms: _455  and  _457
REMARK  194  A    between atoms: _457  and  _458
REMARK  195  A    between atoms: _457  and  _460
REMARK  196  A    between atoms: _460  and  _461
REMARK  197  A    between atoms: _461  and  _462
REMARK  198  A    between atoms: _462  and  _463
REMARK  199  A    between atoms: _463  and  _464
REMARK  200  A    between atoms: _468  and  _470
REMARK  201  A    between atoms: _470  and  _471
REMARK  202  A    between atoms: _470  and  _473
REMARK  203  A    between atoms: _473  and  _474
REMARK  204  A    between atoms: _479  and  _480
REMARK  205  A    between atoms: _482  and  _484
REMARK  206  A    between atoms: _484  and  _485
REMARK  207  A    between atoms: _487  and  _489
REMARK  208  A    between atoms: _489  and  _490
REMARK  209  A    between atoms: _489  and  _492
REMARK  210  A    between atoms: _492  and  _493
REMARK  211  A    between atoms: _496  and  _498
REMARK  212  A    between atoms: _498  and  _499
REMARK  213  A    between atoms: _498  and  _501
REMARK  214  A    between atoms: _501  and  _502
REMARK  215  A    between atoms: _507  and  _508
REMARK  216  A    between atoms: _510  and  _512
REMARK  217  A    between atoms: _512  and  _513
REMARK  218  A    between atoms: _512  and  _515
REMARK  219  A    between atoms: _515  and  _516
REMARK                            x       y       z     vdW  Elec       q    Type
REMARK                         _______ _______ _______ _____ _____    ______ ____
ROOT
ATOM      1  CB  HIS A   1       5.992   0.987  29.171  0.00  0.00    +0.072 C 
ENDROOT
BRANCH   1   2
ATOM      2  CG  HIS A   1       5.160   0.085  30.044  0.00  0.00    +0.082 A 
ATOM      3  CD2 HIS A   1       4.023   0.320  30.745  0.00  0.00    +0.115 A 
ATOM      4  NE2 HIS A   1       3.682  -0.851  31.376  0.00  0.00    -0.221 NA
ATOM      5  CE1 HIS A   1       4.575  -1.777  31.076  0.00  0.00    +0.199 A 
ATOM      6  ND1 HIS A   1       5.476  -1.242  30.267  0.00  0.00    -0.227 NA
ENDBRANCH   1   2
BRANCH   1   7
ATOM      7  CA  HIS A   1       7.315   1.424  29.807  0.00  0.00    +0.139 C 
BRANCH   7   8
ATOM      8  N   HIS A   1       8.130   2.176  28.894  0.00  0.00    -0.239 NA
ATOM      9  H   HIS A   1       8.585   1.681  28.101  0.00  0.00    +0.142 HD
ENDBRANCH   7   8
BRANCH   7  10
ATOM     10  C   HIS A   1       8.241   0.255  30.071  0.00  0.00    +0.224 C 
ATOM     11  O   HIS A   1       8.658  -0.434  29.146  0.00  0.00    -0.287 OA
ENDBRANCH   7  10
ENDBRANCH   1   7
TORSDOF 4
REMARK  Name = ../refined-set-2016/2vvu/2vvu_pocket.pdb
REMARK  219 active torsions:
REMARK  status: ('A' for Active; 'I' for Inactive)
REMARK    1  A    between atoms: _1  and  _5
REMARK    2  A    between atoms: _5  and  _6
REMARK    3  A    between atoms: _5  and  _8
REMARK    4  A    between atoms: _8  and  _9
REMARK    5  A    between atoms: _12  and  _14
REMARK    6  A    between atoms: _14  and  _15
REMARK    7  A    between atoms: _14  and  _17
REMARK    8  A    between atoms: _20  and  _22
REMARK    9  A    between atoms: _22  and  _23
REMARK   10  A    between atoms: _22  and  _25
REMARK   11  A    between atoms: _25  and  _26
REMARK   12  A    between atoms: _31  and  _33
REMARK   13  A    between atoms: _33  and  _34
REMARK   14  A    between atoms: _33  and  _36
REMARK   15  A    between atoms: _36  and  _37
REMARK   16  A    between atoms: _37  and  _38
REMARK   17  A    between atoms: _43  and  _45
REMARK   18  A    between atoms: _45  and  _46
REMARK   19  A    between atoms: _45  and  _48
REMARK   20  A    between atoms: _48  and  _49
REMARK   21  A    between atoms: _52  and  _54
REMARK   22  A    between atoms: _54  and  _55
REMARK   23  A    between atoms: _54  and  _57
REMARK   24  A    between atoms: _57  and  _58
REMARK   25  A    between atoms: _58  and  _59
REMARK   26  A    between atoms: _59  and  _60
REMARK   27  A    between atoms: _60  and  _61
REMARK   28  A    between atoms: _65  and  _67
REMARK   29  A    between atoms: _67  and  _68
REMARK   30  A    between atoms: _67  and  _70
REMARK   31  A    between atoms: _70  and  _71
REMARK   32  A    between atoms: _71  and  _72
REMARK   33  A    between atoms: _75  and  _77
REMARK   34  A    between atoms: _77  and  _78
REMARK   35  A    between atoms: _77  and  _80
REMARK   36  A    between atoms: _80  and  _81
REMARK   37  A    between atoms: _84  and  _86
REMARK   38  A    between atoms: _86  and  _87
REMARK   39  A    between atoms: _86  and  _89
REMARK   40  A    between atoms: _89  and  _90
REMARK   41  A    between atoms: _95  and  _96
REMARK   42  A    between atoms: _98  and  _100
REMARK   43  A    between atoms: _100  and  _101
REMARK   44  A    between atoms: _100  and  _103
REMARK   45  A    between atoms: _103  and  _104
REMARK   46  A    between atoms: _107  and  _109
REMARK   47  A    between atoms: _109  and  _110
REMARK   48  A    between atoms: _109  and  _112
REMARK   49  A    between atoms: _112  and  _113
REMARK   50  A    between atoms: _116  and  _118
REMARK   51  A    between atoms: _118  and  _119
REMARK   52  A    between atoms: _118  and  _121
REMARK   53  A    between atoms: _124  and  _126
REMARK   54  A    between atoms: _126  and  _127
REMARK   55  A    between atoms: _126  and  _129
REMARK   56  A    between atoms: _129  and  _130
REMARK   57  A    between atoms: _130  and  _131
REMARK   58  A    between atoms: _131  and  _132
REMARK   59  A    between atoms: _141  and  _143
REMARK   60  A    between atoms: _143  and  _144
REMARK   61  A    between atoms: _143  and  _146
REMARK   62  A    between atoms: _146  and  _147
REMARK   63  A    between atoms: _152  and  _154
REMARK   64  A    between atoms: _154  and  _155
REMARK   65  A    between atoms: _154  and  _157
REMARK   66  A    between atoms: _157  and  _158
REMARK   67  A    between atoms: _158  and  _159
REMARK   68  A    between atoms: _162  and  _164
REMARK   69  A    between atoms: _164  and  _165
REMARK   70  A    between atoms: _164  and  _167
REMARK   71  A    between atoms: _167  and  _168
REMARK   72  A    between atoms: _168  and  _169
REMARK   73  A    between atoms: _169  and  _170
REMARK   74  A    between atoms: _170  and  _171
REMARK   75  A    between atoms: _175  and  _177
REMARK   76  A    between atoms: _177  and  _178
REMARK   77  A    between atoms: _177  and  _180
REMARK   78  A    between atoms: _183  and  _185
REMARK   79  A    between atoms: _185  and  _186
REMARK   80  A    between atoms: _185  and  _188
REMARK   81  A    between atoms: _188  and  _189
REMARK   82  A    between atoms: _191  and  _193
REMARK   83  A    between atoms: _193  and  _194
REMARK   84  A    between atoms: _193  and  _196
REMARK   85  A    between atoms: _196  and  _197
REMARK   86  A    between atoms: _199  and  _201
REMARK   87  A    between atoms: _201  and  _202
REMARK   88  A    between atoms: _201  and  _204
REMARK   89  A    between atoms: _204  and  _205
REMARK   90  A    between atoms: _211  and  _213
REMARK   91  A    between atoms: _213  and  _214
REMARK   92  A    between atoms: _213  and  _216
REMARK   93  A    between atoms: _216  and  _217
REMARK   94  A    between atoms: _220  and  _222
REMARK   95  A    between atoms: _222  and  _223
REMARK   96  A    between atoms: _222  and  _225
REMARK   97  A    between atoms: _225  and  _226
REMARK   98  A    between atoms: _229  and  _231
REMARK   99  A    between atoms: _231  and  _232
REMARK  100  A    between atoms: _231  and  _234
REMARK  101  A    between atoms: _234  and  _235
REMARK  102  A    between atoms: _238  and  _240
REMARK  103  A    between atoms: _240  and  _241
REMARK  104  A    between atoms: _240  and  _243
REMARK  105  A    between atoms: _243  and  _244
REMARK  106  A    between atoms: _244  and  _245
REMARK  107  A    between atoms: _247  and  _249
REMARK  108  A    between atoms: _249  and  _250
REMARK  109  A    between atoms: _249  and  _252
REMARK  110  A    between atoms: _252  and  _253
REMARK  111  A    between atoms: _259  and  _261
REMARK  112  A    between atoms: _261  and  _262
REMARK  113  A    between atoms: _261  and  _264
REMARK  114  A    between atoms: _266  and  _268
REMARK  115  A    between atoms: _268  and  _269
REMARK  116  A    between atoms: _272  and  _274
REMARK  117  A    between atoms: _274  and  _275
REMARK  118  A    between atoms: _277  and  _279
REMARK  119  A    between atoms: _279  and  _280
REMARK  120  A    between atoms: _279  and  _282
REMARK  121  A    between atoms: _282  and  _283
REMARK  122  A    between atoms: _283  and  _284
REMARK  123  A    between atoms: _287  and  _289
REMARK  124  A    between atoms: _289  and  _290
REMARK  125  A    between atoms: _289  and  _292
REMARK  126  A    between atoms: _292  and  _293
REMARK  127  A    between atoms: _296  and  _298
REMARK  128  A    between atoms: _298  and  _299
REMARK  129  A    between atoms: _302  and  _304
REMARK  130  A    between atoms: _304  and  _305
REMARK  131  A    between atoms: _304  and  _307
REMARK  132  A    between atoms: _307  and  _308
REMARK  133  A    between atoms: _308  and  _431
REMARK  134  A    between atoms: _309  and  _311
REMARK  135  A    between atoms: _311  and  _312
REMARK  136  A    between atoms: _311  and  _314
REMARK  137  A    between atoms: _314  and  _315
REMARK  138  A    between atoms: _315  and  _316
REMARK  139  A    between atoms: _321  and  _323
REMARK  140  A    between atoms: _323  and  _324
REMARK  141  A    between atoms: _326  and  _328
REMARK  142  A    between atoms: _328  and  _329
REMARK  143  A    between atoms: _328  and  _331
REMARK  144  A    between atoms: _331  and  _332
REMARK  145  A    between atoms: _335  and  _337
REMARK  146  A    between atoms: _337  and  _338
REMARK  147  A    between atoms: _337  and  _340
REMARK  148  A    between atoms: _340  and  _341
REMARK  149  A    between atoms: _343  and  _345
REMARK  150  A    between atoms: _345  and  _346
REMARK  151  A    between atoms: _348  and  _350
REMARK  152  A    between atoms: _350  and  _351
REMARK  153  A    between atoms: _353  and  _355
REMARK  154  A    between atoms: _355  and  _356
REMARK  155  A    between atoms: _355  and  _358
REMARK  156  A    between atoms: _358  and  _359
REMARK  157  A    between atoms: _364  and  _366
REMARK  158  A    between atoms: _366  and  _367
REMARK  159  A    between atoms: _366  and  _369
REMARK  160  A    between atoms: _369  and  _370
REMARK  161  A    between atoms: _373  and  _375
REMARK  162  A    between atoms: _375  and  _376
REMARK  163  A    between atoms: _375  and  _378
REMARK  164  A    between atoms: _381  and  _383
REMARK  165  A    between atoms: _383  and  _384
REMARK  166  A    between atoms: _383  and  _386
REMARK  167  A    between atoms: _386  and  _387
REMARK  168  A    between atoms: _389  and  _391
REMARK  169  A    between atoms: _391  and  _392
REMARK  170  A    between atoms: _391  and  _394
REMARK  171  A    between atoms: _394  and  _395
REMARK  172  A    between atoms: _405  and  _407
REMARK  173  A    between atoms: _407  and  _408
REMARK  174  A    between atoms: _410  and  _412
REMARK  175  A    between atoms: _412  and  _413
REMARK  176  A    between atoms: _412  and  _415
REMARK  177  A    between atoms: _415  and  _416
REMARK  178  A    between atoms: _416  and  _417
REMARK  179  A    between atoms: _420  and  _422
REMARK  180  A    between atoms: _422  and  _423
REMARK  181  A    between atoms: _425  and  _427
REMARK  182  A    between atoms: _427  and  _428
REMARK  183  A    between atoms: _427  and  _430
REMARK  184  A    between atoms: _430  and  _431
REMARK  185  A    between atoms: _432  and  _434
REMARK  186  A    between atoms: _434  and  _435
REMARK  187  A    between atoms: _438  and  _440
REMARK  188  A    between atoms: _440  and  _441
REMARK  189  A    between atoms: _440  and  _443
REMARK  190  A    between atoms: _443  and  _444
REMARK  191  A    between atoms: _444  and  _445
REMARK  192  A    between atoms: _445  and  _446
REMARK  193  A    between atoms: _455  and  _457
REMARK  194  A    between atoms: _457  and  _458
REMARK  195  A    between atoms: _457  and  _460
REMARK  196  A    between atoms: _460  and  _461
REMARK  197  A    between atoms: _461  and  _462
REMARK  198  A    between atoms: _462  and  _463
REMARK  199  A    between atoms: _463  and  _464
REMARK  200  A    between atoms: _468  and  _470
REMARK  201  A    between atoms: _470  and  _471
REMARK  202  A    between atoms: _470  and  _473
REMARK  203  A    between atoms: _473  and  _474
REMARK  204  A    between atoms: _479  and  _480
REMARK  205  A    between atoms: _482  and  _484
REMARK  206  A    between atoms: _484  and  _485
REMARK  207  A    between atoms: _487  and  _489
REMARK  208  A    between atoms: _489  and  _490
REMARK  209  A    between atoms: _489  and  _492
REMARK  210  A    between atoms: _492  and  _493
REMARK  211  A    between atoms: _496  and  _498
REMARK  212  A    between atoms: _498  and  _499
REMARK  213  A    between atoms: _498  and  _501
REMARK  214  A    between atoms: _501  and  _502
REMARK  215  A    between atoms: _507  and  _508
REMARK  216  A    between atoms: _510  and  _512
REMARK  217  A    between atoms: _512  and  _513
REMARK  218  A    between atoms: _512  and  _515
REMARK  219  A    between atoms: _515  and  _516
REMARK                            x       y       z     vdW  Elec       q    Type
REMARK                         _______ _______ _______ _____ _____    ______ ____
ROOT
ATOM      1  C   GLY A   3      -2.953   2.965  27.933  0.00  0.00    +0.243 C 
ATOM      2  O   GLY A   3      -2.934   1.802  28.370  0.00  0.00    -0.273 OA
ATOM      3  N   ILE A   4      -2.756   3.294  26.652  0.00  0.00    -0.297 N 
ATOM      4  H   ILE A   4      -2.815   4.296  26.380  0.00  0.00    +0.150 HD
ENDROOT
BRANCH   3   5
ATOM      5  CA  ILE A   4      -2.460   2.299  25.614  0.00  0.00    +0.149 C 
BRANCH   5   6
ATOM      6  C   ILE A   4      -0.985   2.314  25.139  0.00  0.00    +0.241 C 
ATOM      7  N   TYR A   5      -0.361   1.141  25.067  0.00  0.00    -0.297 N 
ATOM      8  H   TYR A   5      -0.916   0.265  25.144  0.00  0.00    +0.150 HD
ATOM      9  O   ILE A   4      -0.423   3.368  24.826  0.00  0.00    -0.273 OA
BRANCH   7  10
ATOM     10  CA  TYR A   5       1.091   1.055  24.882  0.00  0.00    +0.153 C 
BRANCH  10  11
ATOM     11  C   TYR A   5       1.393   0.100  23.757  0.00  0.00    +0.241 C 
ATOM     12  O   TYR A   5       0.653  -0.862  23.568  0.00  0.00    -0.273 OA
ATOM     13  N   THR A   6       2.473   0.344  23.014  0.00  0.00    -0.296 N 
ATOM     14  H   THR A   6       2.980   1.244  23.133  0.00  0.00    +0.150 HD
BRANCH  13  15
ATOM     15  CA  THR A   6       2.961  -0.631  22.033  0.00  0.00    +0.164 C 
BRANCH  15  16
ATOM     16  C   THR A   6       3.493  -1.879  22.738  0.00  0.00    +0.229 C 
ATOM     17  O   THR A   6       4.354  -1.761  23.598  0.00  0.00    -0.286 OA
ENDBRANCH  15  16
BRANCH  15  18
ATOM     18  CB  THR A   6       4.102  -0.078  21.123  0.00  0.00    +0.136 C 
ATOM     19  CG2 THR A   6       4.429  -1.091  20.033  0.00  0.00    +0.034 C 
BRANCH  18  20
ATOM     20  OG1 THR A   6       3.696   1.139  20.489  0.00  0.00    -0.382 OA
ATOM     21  HG1 THR A   6       4.432   1.473  19.917  0.00  0.00    +0.210 HD
ENDBRANCH  18  20
ENDBRANCH  15  18
ENDBRANCH  13  15
ENDBRANCH  10  11
BRANCH  10  22
ATOM     22  CB  TYR A   5       1.748   0.523  26.169  0.00  0.00    +0.055 C 
BRANCH  22  23
ATOM     23  CG  TYR A   5       1.632   1.467  27.363  0.00  0.00    -0.020 A 
ATOM     24  CD2 TYR A   5       0.422   1.630  28.047  0.00  0.00    -0.001 A 
ATOM     25  CE2 TYR A   5       0.320   2.492  29.134  0.00  0.00    +0.036 A 
ATOM     26  CZ  TYR A   5       1.430   3.221  29.524  0.00  0.00    +0.134 A 
ATOM     27  CE1 TYR A   5       2.631   3.078  28.878  0.00  0.00    +0.036 A 
ATOM     28  CD1 TYR A   5       2.728   2.201  27.795  0.00  0.00    -0.001 A 
BRANCH  26  29
ATOM     29  OH  TYR A   5       1.347   4.075  30.583  0.00  0.00    -0.506 OA
ATOM     30  HH  TYR A   5       0.661   4.764  30.397  0.00  0.00    +0.292 HD
ENDBRANCH  26  29
ENDBRANCH  22  23
ENDBRANCH  10  22
ENDBRANCH   7  10
ENDBRANCH   5   6
BRANCH   5  31
ATOM     31  CB  ILE A   4      -3.390   2.458  24.384  0.00  0.00    +0.027 C 
ATOM     32  CG2 ILE A   4      -3.210   1.291  23.460  0.00  0.00    +0.002 C 
BRANCH  31  33
ATOM     33  CG1 ILE A   4      -4.875   2.698  24.797  0.00  0.00    +0.002 C 
ATOM     34  CD1 ILE A   4      -5.603   1.506  25.453  0.00  0.00    +0.000 C 
ENDBRANCH  31  33
ENDBRANCH   5  31
ENDBRANCH   3   5
BRANCH   1  35
ATOM     35  CA  GLY A   3      -3.262   4.096  28.877  0.00  0.00    +0.176 C 
BRANCH  35  37
ATOM     36  C   TYR A   2      -5.627   3.769  29.415  0.00  0.00    +0.241 C 
ATOM     37  N   GLY A   3      -4.348   3.660  29.777  0.00  0.00    -0.295 N 
ATOM     38  H   GLY A   3      -4.112   3.261  30.708  0.00  0.00    +0.150 HD
ATOM     39  O   TYR A   2      -5.973   4.307  28.355  0.00  0.00    -0.273 OA
BRANCH  36  40
ATOM     40  CA  TYR A   2      -6.679   3.168  30.355  0.00  0.00    +0.153 C 
BRANCH  40  43
ATOM     41  C   LYS A   1      -8.844   4.272  30.767  0.00  0.00    +0.238 C 
ATOM     42  O   LYS A   1      -8.521   4.612  31.918  0.00  0.00    -0.274 OA
ATOM     43  N   TYR A   2      -8.031   3.606  29.949  0.00  0.00    -0.297 N 
ATOM     44  H   TYR A   2      -8.360   3.386  28.987  0.00  0.00    +0.150 HD
BRANCH  41  45
ATOM     45  CA  LYS A   1     -10.237   4.610  30.212  0.00  0.00    +0.145 C 
BRANCH  45  46
ATOM     46  N   LYS A   1     -11.245   4.671  31.280  0.00  0.00    -0.238 NA
ATOM     47  H   LYS A   1     -11.109   5.345  32.060  0.00  0.00    +0.142 HD
ENDBRANCH  45  46
BRANCH  45  48
ATOM     48  CB  LYS A   1     -10.171   5.937  29.450  0.00  0.00    +0.026 C 
BRANCH  48  49
ATOM     49  CG  LYS A   1     -11.470   6.364  28.807  0.00  0.00    -0.000 C 
BRANCH  49  50
ATOM     50  CD  LYS A   1     -11.706   5.693  27.452  0.00  0.00    -0.024 C 
BRANCH  50  51
ATOM     51  CE  LYS A   1     -13.212   5.686  27.132  0.00  0.00    -0.086 C 
BRANCH  51  52
ATOM     52  NZ  LYS A   1     -13.483   5.336  25.716  0.00  0.00    +0.380 N 
ATOM     53  HZ1 LYS A   1     -14.509   5.344  25.548  0.00  0.00    -0.089 HD
ATOM     54  HZ2 LYS A   1     -13.105   4.388  25.516  0.00  0.00    -0.089 HD
ATOM     55  HZ3 LYS A   1     -13.023   6.032  25.094  0.00  0.00    -0.089 HD
ENDBRANCH  51  52
ENDBRANCH  50  51
ENDBRANCH  49  50
ENDBRANCH  48  49
ENDBRANCH  45  48
ENDBRANCH  41  45
ENDBRANCH  40  43
BRANCH  40  56
ATOM     56  CB  TYR A   2      -6.567   1.623  30.349  0.00  0.00    +0.055 C 
BRANCH  56  57
ATOM     57  CG  TYR A   2      -7.556   0.926  31.266  0.00  0.00    -0.020 A 
ATOM     58  CD2 TYR A   2      -7.281   0.753  32.618  0.00  0.00    -0.001 A 
ATOM     59  CE2 TYR A   2      -8.193   0.122  33.459  0.00  0.00    +0.036 A 
ATOM     60  CZ  TYR A   2      -9.399  -0.323  32.943  0.00  0.00    +0.134 A 
ATOM     61  CE1 TYR A   2      -9.703  -0.151  31.607  0.00  0.00    +0.036 A 
ATOM     62  CD1 TYR A   2      -8.786   0.469  30.779  0.00  0.00    -0.001 A 
BRANCH  60  63
ATOM     63  OH  TYR A   2     -10.298  -0.937  33.765  0.00  0.00    -0.506 OA
ATOM     64  HH  TYR A   2      -9.929  -0.980  34.683  0.00  0.00    +0.292 HD
ENDBRANCH  60  63
ENDBRANCH  56  57
ENDBRANCH  40  56
ENDBRANCH  36  40
ENDBRANCH  35  37
ENDBRANCH   1  35
TORSDOF 27
REMARK  Name = ../refined-set-2016/2vvu/2vvu_pocket.pdb
REMARK  219 active torsions:
REMARK  status: ('A' for Active; 'I' for Inactive)
REMARK    1  A    between atoms: _1  and  _5
REMARK    2  A    between atoms: _5  and  _6
REMARK    3  A    between atoms: _5  and  _8
REMARK    4  A    between atoms: _8  and  _9
REMARK    5  A    between atoms: _12  and  _14
REMARK    6  A    between atoms: _14  and  _15
REMARK    7  A    between atoms: _14  and  _17
REMARK    8  A    between atoms: _20  and  _22
REMARK    9  A    between atoms: _22  and  _23
REMARK   10  A    between atoms: _22  and  _25
REMARK   11  A    between atoms: _25  and  _26
REMARK   12  A    between atoms: _31  and  _33
REMARK   13  A    between atoms: _33  and  _34
REMARK   14  A    between atoms: _33  and  _36
REMARK   15  A    between atoms: _36  and  _37
REMARK   16  A    between atoms: _37  and  _38
REMARK   17  A    between atoms: _43  and  _45
REMARK   18  A    between atoms: _45  and  _46
REMARK   19  A    between atoms: _45  and  _48
REMARK   20  A    between atoms: _48  and  _49
REMARK   21  A    between atoms: _52  and  _54
REMARK   22  A    between atoms: _54  and  _55
REMARK   23  A    between atoms: _54  and  _57
REMARK   24  A    between atoms: _57  and  _58
REMARK   25  A    between atoms: _58  and  _59
REMARK   26  A    between atoms: _59  and  _60
REMARK   27  A    between atoms: _60  and  _61
REMARK   28  A    between atoms: _65  and  _67
REMARK   29  A    between atoms: _67  and  _68
REMARK   30  A    between atoms: _67  and  _70
REMARK   31  A    between atoms: _70  and  _71
REMARK   32  A    between atoms: _71  and  _72
REMARK   33  A    between atoms: _75  and  _77
REMARK   34  A    between atoms: _77  and  _78
REMARK   35  A    between atoms: _77  and  _80
REMARK   36  A    between atoms: _80  and  _81
REMARK   37  A    between atoms: _84  and  _86
REMARK   38  A    between atoms: _86  and  _87
REMARK   39  A    between atoms: _86  and  _89
REMARK   40  A    between atoms: _89  and  _90
REMARK   41  A    between atoms: _95  and  _96
REMARK   42  A    between atoms: _98  and  _100
REMARK   43  A    between atoms: _100  and  _101
REMARK   44  A    between atoms: _100  and  _103
REMARK   45  A    between atoms: _103  and  _104
REMARK   46  A    between atoms: _107  and  _109
REMARK   47  A    between atoms: _109  and  _110
REMARK   48  A    between atoms: _109  and  _112
REMARK   49  A    between atoms: _112  and  _113
REMARK   50  A    between atoms: _116  and  _118
REMARK   51  A    between atoms: _118  and  _119
REMARK   52  A    between atoms: _118  and  _121
REMARK   53  A    between atoms: _124  and  _126
REMARK   54  A    between atoms: _126  and  _127
REMARK   55  A    between atoms: _126  and  _129
REMARK   56  A    between atoms: _129  and  _130
REMARK   57  A    between atoms: _130  and  _131
REMARK   58  A    between atoms: _131  and  _132
REMARK   59  A    between atoms: _141  and  _143
REMARK   60  A    between atoms: _143  and  _144
REMARK   61  A    between atoms: _143  and  _146
REMARK   62  A    between atoms: _146  and  _147
REMARK   63  A    between atoms: _152  and  _154
REMARK   64  A    between atoms: _154  and  _155
REMARK   65  A    between atoms: _154  and  _157
REMARK   66  A    between atoms: _157  and  _158
REMARK   67  A    between atoms: _158  and  _159
REMARK   68  A    between atoms: _162  and  _164
REMARK   69  A    between atoms: _164  and  _165
REMARK   70  A    between atoms: _164  and  _167
REMARK   71  A    between atoms: _167  and  _168
REMARK   72  A    between atoms: _168  and  _169
REMARK   73  A    between atoms: _169  and  _170
REMARK   74  A    between atoms: _170  and  _171
REMARK   75  A    between atoms: _175  and  _177
REMARK   76  A    between atoms: _177  and  _178
REMARK   77  A    between atoms: _177  and  _180
REMARK   78  A    between atoms: _183  and  _185
REMARK   79  A    between atoms: _185  and  _186
REMARK   80  A    between atoms: _185  and  _188
REMARK   81  A    between atoms: _188  and  _189
REMARK   82  A    between atoms: _191  and  _193
REMARK   83  A    between atoms: _193  and  _194
REMARK   84  A    between atoms: _193  and  _196
REMARK   85  A    between atoms: _196  and  _197
REMARK   86  A    between atoms: _199  and  _201
REMARK   87  A    between atoms: _201  and  _202
REMARK   88  A    between atoms: _201  and  _204
REMARK   89  A    between atoms: _204  and  _205
REMARK   90  A    between atoms: _211  and  _213
REMARK   91  A    between atoms: _213  and  _214
REMARK   92  A    between atoms: _213  and  _216
REMARK   93  A    between atoms: _216  and  _217
REMARK   94  A    between atoms: _220  and  _222
REMARK   95  A    between atoms: _222  and  _223
REMARK   96  A    between atoms: _222  and  _225
REMARK   97  A    between atoms: _225  and  _226
REMARK   98  A    between atoms: _229  and  _231
REMARK   99  A    between atoms: _231  and  _232
REMARK  100  A    between atoms: _231  and  _234
REMARK  101  A    between atoms: _234  and  _235
REMARK  102  A    between atoms: _238  and  _240
REMARK  103  A    between atoms: _240  and  _241
REMARK  104  A    between atoms: _240  and  _243
REMARK  105  A    between atoms: _243  and  _244
REMARK  106  A    between atoms: _244  and  _245
REMARK  107  A    between atoms: _247  and  _249
REMARK  108  A    between atoms: _249  and  _250
REMARK  109  A    between atoms: _249  and  _252
REMARK  110  A    between atoms: _252  and  _253
REMARK  111  A    between atoms: _259  and  _261
REMARK  112  A    between atoms: _261  and  _262
REMARK  113  A    between atoms: _261  and  _264
REMARK  114  A    between atoms: _266  and  _268
REMARK  115  A    between atoms: _268  and  _269
REMARK  116  A    between atoms: _272  and  _274
REMARK  117  A    between atoms: _274  and  _275
REMARK  118  A    between atoms: _277  and  _279
REMARK  119  A    between atoms: _279  and  _280
REMARK  120  A    between atoms: _279  and  _282
REMARK  121  A    between atoms: _282  and  _283
REMARK  122  A    between atoms: _283  and  _284
REMARK  123  A    between atoms: _287  and  _289
REMARK  124  A    between atoms: _289  and  _290
REMARK  125  A    between atoms: _289  and  _292
REMARK  126  A    between atoms: _292  and  _293
REMARK  127  A    between atoms: _296  and  _298
REMARK  128  A    between atoms: _298  and  _299
REMARK  129  A    between atoms: _302  and  _304
REMARK  130  A    between atoms: _304  and  _305
REMARK  131  A    between atoms: _304  and  _307
REMARK  132  A    between atoms: _307  and  _308
REMARK  133  A    between atoms: _308  and  _431
REMARK  134  A    between atoms: _309  and  _311
REMARK  135  A    between atoms: _311  and  _312
REMARK  136  A    between atoms: _311  and  _314
REMARK  137  A    between atoms: _314  and  _315
REMARK  138  A    between atoms: _315  and  _316
REMARK  139  A    between atoms: _321  and  _323
REMARK  140  A    between atoms: _323  and  _324
REMARK  141  A    between atoms: _326  and  _328
REMARK  142  A    between atoms: _328  and  _329
REMARK  143  A    between atoms: _328  and  _331
REMARK  144  A    between atoms: _331  and  _332
REMARK  145  A    between atoms: _335  and  _337
REMARK  146  A    between atoms: _337  and  _338
REMARK  147  A    between atoms: _337  and  _340
REMARK  148  A    between atoms: _340  and  _341
REMARK  149  A    between atoms: _343  and  _345
REMARK  150  A    between atoms: _345  and  _346
REMARK  151  A    between atoms: _348  and  _350
REMARK  152  A    between atoms: _350  and  _351
REMARK  153  A    between atoms: _353  and  _355
REMARK  154  A    between atoms: _355  and  _356
REMARK  155  A    between atoms: _355  and  _358
REMARK  156  A    between atoms: _358  and  _359
REMARK  157  A    between atoms: _364  and  _366
REMARK  158  A    between atoms: _366  and  _367
REMARK  159  A    between atoms: _366  and  _369
REMARK  160  A    between atoms: _369  and  _370
REMARK  161  A    between atoms: _373  and  _375
REMARK  162  A    between atoms: _375  and  _376
REMARK  163  A    between atoms: _375  and  _378
REMARK  164  A    between atoms: _381  and  _383
REMARK  165  A    between atoms: _383  and  _384
REMARK  166  A    between atoms: _383  and  _386
REMARK  167  A    between atoms: _386  and  _387
REMARK  168  A    between atoms: _389  and  _391
REMARK  169  A    between atoms: _391  and  _392
REMARK  170  A    between atoms: _391  and  _394
REMARK  171  A    between atoms: _394  and  _395
REMARK  172  A    between atoms: _405  and  _407
REMARK  173  A    between atoms: _407  and  _408
REMARK  174  A    between atoms: _410  and  _412
REMARK  175  A    between atoms: _412  and  _413
REMARK  176  A    between atoms: _412  and  _415
REMARK  177  A    between atoms: _415  and  _416
REMARK  178  A    between atoms: _416  and  _417
REMARK  179  A    between atoms: _420  and  _422
REMARK  180  A    between atoms: _422  and  _423
REMARK  181  A    between atoms: _425  and  _427
REMARK  182  A    between atoms: _427  and  _428
REMARK  183  A    between atoms: _427  and  _430
REMARK  184  A    between atoms: _430  and  _431
REMARK  185  A    between atoms: _432  and  _434
REMARK  186  A    between atoms: _434  and  _435
REMARK  187  A    between atoms: _438  and  _440
REMARK  188  A    between atoms: _440  and  _441
REMARK  189  A    between atoms: _440  and  _443
REMARK  190  A    between atoms: _443  and  _444
REMARK  191  A    between atoms: _444  and  _445
REMARK  192  A    between atoms: _445  and  _446
REMARK  193  A    between atoms: _455  and  _457
REMARK  194  A    between atoms: _457  and  _458
REMARK  195  A    between atoms: _457  and  _460
REMARK  196  A    between atoms: _460  and  _461
REMARK  197  A    between atoms: _461  and  _462
REMARK  198  A    between atoms: _462  and  _463
REMARK  199  A    between atoms: _463  and  _464
REMARK  200  A    between atoms: _468  and  _470
REMARK  201  A    between atoms: _470  and  _471
REMARK  202  A    between atoms: _470  and  _473
REMARK  203  A    between atoms: _473  and  _474
REMARK  204  A    between atoms: _479  and  _480
REMARK  205  A    between atoms: _482  and  _484
REMARK  206  A    between atoms: _484  and  _485
REMARK  207  A    between atoms: _487  and  _489
REMARK  208  A    between atoms: _489  and  _490
REMARK  209  A    between atoms: _489  and  _492
REMARK  210  A    between atoms: _492  and  _493
REMARK  211  A    between atoms: _496  and  _498
REMARK  212  A    between atoms: _498  and  _499
REMARK  213  A    between atoms: _498  and  _501
REMARK  214  A    between atoms: _501  and  _502
REMARK  215  A    between atoms: _507  and  _508
REMARK  216  A    between atoms: _510  and  _512
REMARK  217  A    between atoms: _512  and  _513
REMARK  218  A    between atoms: _512  and  _515
REMARK  219  A    between atoms: _515  and  _516
REMARK                            x       y       z     vdW  Elec       q    Type
REMARK                         _______ _______ _______ _____ _____    ______ ____
ROOT
ATOM      1  O   HOH     1       3.799  13.136  23.285  0.00  0.00    +0.000 OA
ENDROOT
TORSDOF 0
REMARK  Name = ../refined-set-2016/2vvu/2vvu_pocket.pdb
REMARK  219 active torsions:
REMARK  status: ('A' for Active; 'I' for Inactive)
REMARK    1  A    between atoms: _1  and  _5
REMARK    2  A    between atoms: _5  and  _6
REMARK    3  A    between atoms: _5  and  _8
REMARK    4  A    between atoms: _8  and  _9
REMARK    5  A    between atoms: _12  and  _14
REMARK    6  A    between atoms: _14  and  _15
REMARK    7  A    between atoms: _14  and  _17
REMARK    8  A    between atoms: _20  and  _22
REMARK    9  A    between atoms: _22  and  _23
REMARK   10  A    between atoms: _22  and  _25
REMARK   11  A    between atoms: _25  and  _26
REMARK   12  A    between atoms: _31  and  _33
REMARK   13  A    between atoms: _33  and  _34
REMARK   14  A    between atoms: _33  and  _36
REMARK   15  A    between atoms: _36  and  _37
REMARK   16  A    between atoms: _37  and  _38
REMARK   17  A    between atoms: _43  and  _45
REMARK   18  A    between atoms: _45  and  _46
REMARK   19  A    between atoms: _45  and  _48
REMARK   20  A    between atoms: _48  and  _49
REMARK   21  A    between atoms: _52  and  _54
REMARK   22  A    between atoms: _54  and  _55
REMARK   23  A    between atoms: _54  and  _57
REMARK   24  A    between atoms: _57  and  _58
REMARK   25  A    between atoms: _58  and  _59
REMARK   26  A    between atoms: _59  and  _60
REMARK   27  A    between atoms: _60  and  _61
REMARK   28  A    between atoms: _65  and  _67
REMARK   29  A    between atoms: _67  and  _68
REMARK   30  A    between atoms: _67  and  _70
REMARK   31  A    between atoms: _70  and  _71
REMARK   32  A    between atoms: _71  and  _72
REMARK   33  A    between atoms: _75  and  _77
REMARK   34  A    between atoms: _77  and  _78
REMARK   35  A    between atoms: _77  and  _80
REMARK   36  A    between atoms: _80  and  _81
REMARK   37  A    between atoms: _84  and  _86
REMARK   38  A    between atoms: _86  and  _87
REMARK   39  A    between atoms: _86  and  _89
REMARK   40  A    between atoms: _89  and  _90
REMARK   41  A    between atoms: _95  and  _96
REMARK   42  A    between atoms: _98  and  _100
REMARK   43  A    between atoms: _100  and  _101
REMARK   44  A    between atoms: _100  and  _103
REMARK   45  A    between atoms: _103  and  _104
REMARK   46  A    between atoms: _107  and  _109
REMARK   47  A    between atoms: _109  and  _110
REMARK   48  A    between atoms: _109  and  _112
REMARK   49  A    between atoms: _112  and  _113
REMARK   50  A    between atoms: _116  and  _118
REMARK   51  A    between atoms: _118  and  _119
REMARK   52  A    between atoms: _118  and  _121
REMARK   53  A    between atoms: _124  and  _126
REMARK   54  A    between atoms: _126  and  _127
REMARK   55  A    between atoms: _126  and  _129
REMARK   56  A    between atoms: _129  and  _130
REMARK   57  A    between atoms: _130  and  _131
REMARK   58  A    between atoms: _131  and  _132
REMARK   59  A    between atoms: _141  and  _143
REMARK   60  A    between atoms: _143  and  _144
REMARK   61  A    between atoms: _143  and  _146
REMARK   62  A    between atoms: _146  and  _147
REMARK   63  A    between atoms: _152  and  _154
REMARK   64  A    between atoms: _154  and  _155
REMARK   65  A    between atoms: _154  and  _157
REMARK   66  A    between atoms: _157  and  _158
REMARK   67  A    between atoms: _158  and  _159
REMARK   68  A    between atoms: _162  and  _164
REMARK   69  A    between atoms: _164  and  _165
REMARK   70  A    between atoms: _164  and  _167
REMARK   71  A    between atoms: _167  and  _168
REMARK   72  A    between atoms: _168  and  _169
REMARK   73  A    between atoms: _169  and  _170
REMARK   74  A    between atoms: _170  and  _171
REMARK   75  A    between atoms: _175  and  _177
REMARK   76  A    between atoms: _177  and  _178
REMARK   77  A    between atoms: _177  and  _180
REMARK   78  A    between atoms: _183  and  _185
REMARK   79  A    between atoms: _185  and  _186
REMARK   80  A    between atoms: _185  and  _188
REMARK   81  A    between atoms: _188  and  _189
REMARK   82  A    between atoms: _191  and  _193
REMARK   83  A    between atoms: _193  and  _194
REMARK   84  A    between atoms: _193  and  _196
REMARK   85  A    between atoms: _196  and  _197
REMARK   86  A    between atoms: _199  and  _201
REMARK   87  A    between atoms: _201  and  _202
REMARK   88  A    between atoms: _201  and  _204
REMARK   89  A    between atoms: _204  and  _205
REMARK   90  A    between atoms: _211  and  _213
REMARK   91  A    between atoms: _213  and  _214
REMARK   92  A    between atoms: _213  and  _216
REMARK   93  A    between atoms: _216  and  _217
REMARK   94  A    between atoms: _220  and  _222
REMARK   95  A    between atoms: _222  and  _223
REMARK   96  A    between atoms: _222  and  _225
REMARK   97  A    between atoms: _225  and  _226
REMARK   98  A    between atoms: _229  and  _231
REMARK   99  A    between atoms: _231  and  _232
REMARK  100  A    between atoms: _231  and  _234
REMARK  101  A    between atoms: _234  and  _235
REMARK  102  A    between atoms: _238  and  _240
REMARK  103  A    between atoms: _240  and  _241
REMARK  104  A    between atoms: _240  and  _243
REMARK  105  A    between atoms: _243  and  _244
REMARK  106  A    between atoms: _244  and  _245
REMARK  107  A    between atoms: _247  and  _249
REMARK  108  A    between atoms: _249  and  _250
REMARK  109  A    between atoms: _249  and  _252
REMARK  110  A    between atoms: _252  and  _253
REMARK  111  A    between atoms: _259  and  _261
REMARK  112  A    between atoms: _261  and  _262
REMARK  113  A    between atoms: _261  and  _264
REMARK  114  A    between atoms: _266  and  _268
REMARK  115  A    between atoms: _268  and  _269
REMARK  116  A    between atoms: _272  and  _274
REMARK  117  A    between atoms: _274  and  _275
REMARK  118  A    between atoms: _277  and  _279
REMARK  119  A    between atoms: _279  and  _280
REMARK  120  A    between atoms: _279  and  _282
REMARK  121  A    between atoms: _282  and  _283
REMARK  122  A    between atoms: _283  and  _284
REMARK  123  A    between atoms: _287  and  _289
REMARK  124  A    between atoms: _289  and  _290
REMARK  125  A    between atoms: _289  and  _292
REMARK  126  A    between atoms: _292  and  _293
REMARK  127  A    between atoms: _296  and  _298
REMARK  128  A    between atoms: _298  and  _299
REMARK  129  A    between atoms: _302  and  _304
REMARK  130  A    between atoms: _304  and  _305
REMARK  131  A    between atoms: _304  and  _307
REMARK  132  A    between atoms: _307  and  _308
REMARK  133  A    between atoms: _308  and  _431
REMARK  134  A    between atoms: _309  and  _311
REMARK  135  A    between atoms: _311  and  _312
REMARK  136  A    between atoms: _311  and  _314
REMARK  137  A    between atoms: _314  and  _315
REMARK  138  A    between atoms: _315  and  _316
REMARK  139  A    between atoms: _321  and  _323
REMARK  140  A    between atoms: _323  and  _324
REMARK  141  A    between atoms: _326  and  _328
REMARK  142  A    between atoms: _328  and  _329
REMARK  143  A    between atoms: _328  and  _331
REMARK  144  A    between atoms: _331  and  _332
REMARK  145  A    between atoms: _335  and  _337
REMARK  146  A    between atoms: _337  and  _338
REMARK  147  A    between atoms: _337  and  _340
REMARK  148  A    between atoms: _340  and  _341
REMARK  149  A    between atoms: _343  and  _345
REMARK  150  A    between atoms: _345  and  _346
REMARK  151  A    between atoms: _348  and  _350
REMARK  152  A    between atoms: _350  and  _351
REMARK  153  A    between atoms: _353  and  _355
REMARK  154  A    between atoms: _355  and  _356
REMARK  155  A    between atoms: _355  and  _358
REMARK  156  A    between atoms: _358  and  _359
REMARK  157  A    between atoms: _364  and  _366
REMARK  158  A    between atoms: _366  and  _367
REMARK  159  A    between atoms: _366  and  _369
REMARK  160  A    between atoms: _369  and  _370
REMARK  161  A    between atoms: _373  and  _375
REMARK  162  A    between atoms: _375  and  _376
REMARK  163  A    between atoms: _375  and  _378
REMARK  164  A    between atoms: _381  and  _383
REMARK  165  A    between atoms: _383  and  _384
REMARK  166  A    between atoms: _383  and  _386
REMARK  167  A    between atoms: _386  and  _387
REMARK  168  A    between atoms: _389  and  _391
REMARK  169  A    between atoms: _391  and  _392
REMARK  170  A    between atoms: _391  and  _394
REMARK  171  A    between atoms: _394  and  _395
REMARK  172  A    between atoms: _405  and  _407
REMARK  173  A    between atoms: _407  and  _408
REMARK  174  A    between atoms: _410  and  _412
REMARK  175  A    between atoms: _412  and  _413
REMARK  176  A    between atoms: _412  and  _415
REMARK  177  A    between atoms: _415  and  _416
REMARK  178  A    between atoms: _416  and  _417
REMARK  179  A    between atoms: _420  and  _422
REMARK  180  A    between atoms: _422  and  _423
REMARK  181  A    between atoms: _425  and  _427
REMARK  182  A    between atoms: _427  and  _428
REMARK  183  A    between atoms: _427  and  _430
REMARK  184  A    between atoms: _430  and  _431
REMARK  185  A    between atoms: _432  and  _434
REMARK  186  A    between atoms: _434  and  _435
REMARK  187  A    between atoms: _438  and  _440
REMARK  188  A    between atoms: _440  and  _441
REMARK  189  A    between atoms: _440  and  _443
REMARK  190  A    between atoms: _443  and  _444
REMARK  191  A    between atoms: _444  and  _445
REMARK  192  A    between atoms: _445  and  _446
REMARK  193  A    between atoms: _455  and  _457
REMARK  194  A    between atoms: _457  and  _458
REMARK  195  A    between atoms: _457  and  _460
REMARK  196  A    between atoms: _460  and  _461
REMARK  197  A    between atoms: _461  and  _462
REMARK  198  A    between atoms: _462  and  _463
REMARK  199  A    between atoms: _463  and  _464
REMARK  200  A    between atoms: _468  and  _470
REMARK  201  A    between atoms: _470  and  _471
REMARK  202  A    between atoms: _470  and  _473
REMARK  203  A    between atoms: _473  and  _474
REMARK  204  A    between atoms: _479  and  _480
REMARK  205  A    between atoms: _482  and  _484
REMARK  206  A    between atoms: _484  and  _485
REMARK  207  A    between atoms: _487  and  _489
REMARK  208  A    between atoms: _489  and  _490
REMARK  209  A    between atoms: _489  and  _492
REMARK  210  A    between atoms: _492  and  _493
REMARK  211  A    between atoms: _496  and  _498
REMARK  212  A    between atoms: _498  and  _499
REMARK  213  A    between atoms: _498  and  _501
REMARK  214  A    between atoms: _501  and  _502
REMARK  215  A    between atoms: _507  and  _508
REMARK  216  A    between atoms: _510  and  _512
REMARK  217  A    between atoms: _512  and  _513
REMARK  218  A    between atoms: _512  and  _515
REMARK  219  A    between atoms: _515  and  _516
REMARK                            x       y       z     vdW  Elec       q    Type
REMARK                         _______ _______ _______ _____ _____    ______ ____
ROOT
ATOM      1  O   HOH     1       2.509  12.199  20.725  0.00  0.00    +0.000 OA
ENDROOT
TORSDOF 0
REMARK  Name = ../refined-set-2016/2vvu/2vvu_pocket.pdb
REMARK  219 active torsions:
REMARK  status: ('A' for Active; 'I' for Inactive)
REMARK    1  A    between atoms: _1  and  _5
REMARK    2  A    between atoms: _5  and  _6
REMARK    3  A    between atoms: _5  and  _8
REMARK    4  A    between atoms: _8  and  _9
REMARK    5  A    between atoms: _12  and  _14
REMARK    6  A    between atoms: _14  and  _15
REMARK    7  A    between atoms: _14  and  _17
REMARK    8  A    between atoms: _20  and  _22
REMARK    9  A    between atoms: _22  and  _23
REMARK   10  A    between atoms: _22  and  _25
REMARK   11  A    between atoms: _25  and  _26
REMARK   12  A    between atoms: _31  and  _33
REMARK   13  A    between atoms: _33  and  _34
REMARK   14  A    between atoms: _33  and  _36
REMARK   15  A    between atoms: _36  and  _37
REMARK   16  A    between atoms: _37  and  _38
REMARK   17  A    between atoms: _43  and  _45
REMARK   18  A    between atoms: _45  and  _46
REMARK   19  A    between atoms: _45  and  _48
REMARK   20  A    between atoms: _48  and  _49
REMARK   21  A    between atoms: _52  and  _54
REMARK   22  A    between atoms: _54  and  _55
REMARK   23  A    between atoms: _54  and  _57
REMARK   24  A    between atoms: _57  and  _58
REMARK   25  A    between atoms: _58  and  _59
REMARK   26  A    between atoms: _59  and  _60
REMARK   27  A    between atoms: _60  and  _61
REMARK   28  A    between atoms: _65  and  _67
REMARK   29  A    between atoms: _67  and  _68
REMARK   30  A    between atoms: _67  and  _70
REMARK   31  A    between atoms: _70  and  _71
REMARK   32  A    between atoms: _71  and  _72
REMARK   33  A    between atoms: _75  and  _77
REMARK   34  A    between atoms: _77  and  _78
REMARK   35  A    between atoms: _77  and  _80
REMARK   36  A    between atoms: _80  and  _81
REMARK   37  A    between atoms: _84  and  _86
REMARK   38  A    between atoms: _86  and  _87
REMARK   39  A    between atoms: _86  and  _89
REMARK   40  A    between atoms: _89  and  _90
REMARK   41  A    between atoms: _95  and  _96
REMARK   42  A    between atoms: _98  and  _100
REMARK   43  A    between atoms: _100  and  _101
REMARK   44  A    between atoms: _100  and  _103
REMARK   45  A    between atoms: _103  and  _104
REMARK   46  A    between atoms: _107  and  _109
REMARK   47  A    between atoms: _109  and  _110
REMARK   48  A    between atoms: _109  and  _112
REMARK   49  A    between atoms: _112  and  _113
REMARK   50  A    between atoms: _116  and  _118
REMARK   51  A    between atoms: _118  and  _119
REMARK   52  A    between atoms: _118  and  _121
REMARK   53  A    between atoms: _124  and  _126
REMARK   54  A    between atoms: _126  and  _127
REMARK   55  A    between atoms: _126  and  _129
REMARK   56  A    between atoms: _129  and  _130
REMARK   57  A    between atoms: _130  and  _131
REMARK   58  A    between atoms: _131  and  _132
REMARK   59  A    between atoms: _141  and  _143
REMARK   60  A    between atoms: _143  and  _144
REMARK   61  A    between atoms: _143  and  _146
REMARK   62  A    between atoms: _146  and  _147
REMARK   63  A    between atoms: _152  and  _154
REMARK   64  A    between atoms: _154  and  _155
REMARK   65  A    between atoms: _154  and  _157
REMARK   66  A    between atoms: _157  and  _158
REMARK   67  A    between atoms: _158  and  _159
REMARK   68  A    between atoms: _162  and  _164
REMARK   69  A    between atoms: _164  and  _165
REMARK   70  A    between atoms: _164  and  _167
REMARK   71  A    between atoms: _167  and  _168
REMARK   72  A    between atoms: _168  and  _169
REMARK   73  A    between atoms: _169  and  _170
REMARK   74  A    between atoms: _170  and  _171
REMARK   75  A    between atoms: _175  and  _177
REMARK   76  A    between atoms: _177  and  _178
REMARK   77  A    between atoms: _177  and  _180
REMARK   78  A    between atoms: _183  and  _185
REMARK   79  A    between atoms: _185  and  _186
REMARK   80  A    between atoms: _185  and  _188
REMARK   81  A    between atoms: _188  and  _189
REMARK   82  A    between atoms: _191  and  _193
REMARK   83  A    between atoms: _193  and  _194
REMARK   84  A    between atoms: _193  and  _196
REMARK   85  A    between atoms: _196  and  _197
REMARK   86  A    between atoms: _199  and  _201
REMARK   87  A    between atoms: _201  and  _202
REMARK   88  A    between atoms: _201  and  _204
REMARK   89  A    between atoms: _204  and  _205
REMARK   90  A    between atoms: _211  and  _213
REMARK   91  A    between atoms: _213  and  _214
REMARK   92  A    between atoms: _213  and  _216
REMARK   93  A    between atoms: _216  and  _217
REMARK   94  A    between atoms: _220  and  _222
REMARK   95  A    between atoms: _222  and  _223
REMARK   96  A    between atoms: _222  and  _225
REMARK   97  A    between atoms: _225  and  _226
REMARK   98  A    between atoms: _229  and  _231
REMARK   99  A    between atoms: _231  and  _232
REMARK  100  A    between atoms: _231  and  _234
REMARK  101  A    between atoms: _234  and  _235
REMARK  102  A    between atoms: _238  and  _240
REMARK  103  A    between atoms: _240  and  _241
REMARK  104  A    between atoms: _240  and  _243
REMARK  105  A    between atoms: _243  and  _244
REMARK  106  A    between atoms: _244  and  _245
REMARK  107  A    between atoms: _247  and  _249
REMARK  108  A    between atoms: _249  and  _250
REMARK  109  A    between atoms: _249  and  _252
REMARK  110  A    between atoms: _252  and  _253
REMARK  111  A    between atoms: _259  and  _261
REMARK  112  A    between atoms: _261  and  _262
REMARK  113  A    between atoms: _261  and  _264
REMARK  114  A    between atoms: _266  and  _268
REMARK  115  A    between atoms: _268  and  _269
REMARK  116  A    between atoms: _272  and  _274
REMARK  117  A    between atoms: _274  and  _275
REMARK  118  A    between atoms: _277  and  _279
REMARK  119  A    between atoms: _279  and  _280
REMARK  120  A    between atoms: _279  and  _282
REMARK  121  A    between atoms: _282  and  _283
REMARK  122  A    between atoms: _283  and  _284
REMARK  123  A    between atoms: _287  and  _289
REMARK  124  A    between atoms: _289  and  _290
REMARK  125  A    between atoms: _289  and  _292
REMARK  126  A    between atoms: _292  and  _293
REMARK  127  A    between atoms: _296  and  _298
REMARK  128  A    between atoms: _298  and  _299
REMARK  129  A    between atoms: _302  and  _304
REMARK  130  A    between atoms: _304  and  _305
REMARK  131  A    between atoms: _304  and  _307
REMARK  132  A    between atoms: _307  and  _308
REMARK  133  A    between atoms: _308  and  _431
REMARK  134  A    between atoms: _309  and  _311
REMARK  135  A    between atoms: _311  and  _312
REMARK  136  A    between atoms: _311  and  _314
REMARK  137  A    between atoms: _314  and  _315
REMARK  138  A    between atoms: _315  and  _316
REMARK  139  A    between atoms: _321  and  _323
REMARK  140  A    between atoms: _323  and  _324
REMARK  141  A    between atoms: _326  and  _328
REMARK  142  A    between atoms: _328  and  _329
REMARK  143  A    between atoms: _328  and  _331
REMARK  144  A    between atoms: _331  and  _332
REMARK  145  A    between atoms: _335  and  _337
REMARK  146  A    between atoms: _337  and  _338
REMARK  147  A    between atoms: _337  and  _340
REMARK  148  A    between atoms: _340  and  _341
REMARK  149  A    between atoms: _343  and  _345
REMARK  150  A    between atoms: _345  and  _346
REMARK  151  A    between atoms: _348  and  _350
REMARK  152  A    between atoms: _350  and  _351
REMARK  153  A    between atoms: _353  and  _355
REMARK  154  A    between atoms: _355  and  _356
REMARK  155  A    between atoms: _355  and  _358
REMARK  156  A    between atoms: _358  and  _359
REMARK  157  A    between atoms: _364  and  _366
REMARK  158  A    between atoms: _366  and  _367
REMARK  159  A    between atoms: _366  and  _369
REMARK  160  A    between atoms: _369  and  _370
REMARK  161  A    between atoms: _373  and  _375
REMARK  162  A    between atoms: _375  and  _376
REMARK  163  A    between atoms: _375  and  _378
REMARK  164  A    between atoms: _381  and  _383
REMARK  165  A    between atoms: _383  and  _384
REMARK  166  A    between atoms: _383  and  _386
REMARK  167  A    between atoms: _386  and  _387
REMARK  168  A    between atoms: _389  and  _391
REMARK  169  A    between atoms: _391  and  _392
REMARK  170  A    between atoms: _391  and  _394
REMARK  171  A    between atoms: _394  and  _395
REMARK  172  A    between atoms: _405  and  _407
REMARK  173  A    between atoms: _407  and  _408
REMARK  174  A    between atoms: _410  and  _412
REMARK  175  A    between atoms: _412  and  _413
REMARK  176  A    between atoms: _412  and  _415
REMARK  177  A    between atoms: _415  and  _416
REMARK  178  A    between atoms: _416  and  _417
REMARK  179  A    between atoms: _420  and  _422
REMARK  180  A    between atoms: _422  and  _423
REMARK  181  A    between atoms: _425  and  _427
REMARK  182  A    between atoms: _427  and  _428
REMARK  183  A    between atoms: _427  and  _430
REMARK  184  A    between atoms: _430  and  _431
REMARK  185  A    between atoms: _432  and  _434
REMARK  186  A    between atoms: _434  and  _435
REMARK  187  A    between atoms: _438  and  _440
REMARK  188  A    between atoms: _440  and  _441
REMARK  189  A    between atoms: _440  and  _443
REMARK  190  A    between atoms: _443  and  _444
REMARK  191  A    between atoms: _444  and  _445
REMARK  192  A    between atoms: _445  and  _446
REMARK  193  A    between atoms: _455  and  _457
REMARK  194  A    between atoms: _457  and  _458
REMARK  195  A    between atoms: _457  and  _460
REMARK  196  A    between atoms: _460  and  _461
REMARK  197  A    between atoms: _461  and  _462
REMARK  198  A    between atoms: _462  and  _463
REMARK  199  A    between atoms: _463  and  _464
REMARK  200  A    between atoms: _468  and  _470
REMARK  201  A    between atoms: _470  and  _471
REMARK  202  A    between atoms: _470  and  _473
REMARK  203  A    between atoms: _473  and  _474
REMARK  204  A    between atoms: _479  and  _480
REMARK  205  A    between atoms: _482  and  _484
REMARK  206  A    between atoms: _484  and  _485
REMARK  207  A    between atoms: _487  and  _489
REMARK  208  A    between atoms: _489  and  _490
REMARK  209  A    between atoms: _489  and  _492
REMARK  210  A    between atoms: _492  and  _493
REMARK  211  A    between atoms: _496  and  _498
REMARK  212  A    between atoms: _498  and  _499
REMARK  213  A    between atoms: _498  and  _501
REMARK  214  A    between atoms: _501  and  _502
REMARK  215  A    between atoms: _507  and  _508
REMARK  216  A    between atoms: _510  and  _512
REMARK  217  A    between atoms: _512  and  _513
REMARK  218  A    between atoms: _512  and  _515
REMARK  219  A    between atoms: _515  and  _516
REMARK                            x       y       z     vdW  Elec       q    Type
REMARK                         _______ _______ _______ _____ _____    ______ ____
ROOT
ATOM      1  O   HOH     1      -6.307   0.757  15.623  0.00  0.00    +0.000 OA
ENDROOT
TORSDOF 0
REMARK  Name = ../refined-set-2016/2vvu/2vvu_pocket.pdb
REMARK  219 active torsions:
REMARK  status: ('A' for Active; 'I' for Inactive)
REMARK    1  A    between atoms: _1  and  _5
REMARK    2  A    between atoms: _5  and  _6
REMARK    3  A    between atoms: _5  and  _8
REMARK    4  A    between atoms: _8  and  _9
REMARK    5  A    between atoms: _12  and  _14
REMARK    6  A    between atoms: _14  and  _15
REMARK    7  A    between atoms: _14  and  _17
REMARK    8  A    between atoms: _20  and  _22
REMARK    9  A    between atoms: _22  and  _23
REMARK   10  A    between atoms: _22  and  _25
REMARK   11  A    between atoms: _25  and  _26
REMARK   12  A    between atoms: _31  and  _33
REMARK   13  A    between atoms: _33  and  _34
REMARK   14  A    between atoms: _33  and  _36
REMARK   15  A    between atoms: _36  and  _37
REMARK   16  A    between atoms: _37  and  _38
REMARK   17  A    between atoms: _43  and  _45
REMARK   18  A    between atoms: _45  and  _46
REMARK   19  A    between atoms: _45  and  _48
REMARK   20  A    between atoms: _48  and  _49
REMARK   21  A    between atoms: _52  and  _54
REMARK   22  A    between atoms: _54  and  _55
REMARK   23  A    between atoms: _54  and  _57
REMARK   24  A    between atoms: _57  and  _58
REMARK   25  A    between atoms: _58  and  _59
REMARK   26  A    between atoms: _59  and  _60
REMARK   27  A    between atoms: _60  and  _61
REMARK   28  A    between atoms: _65  and  _67
REMARK   29  A    between atoms: _67  and  _68
REMARK   30  A    between atoms: _67  and  _70
REMARK   31  A    between atoms: _70  and  _71
REMARK   32  A    between atoms: _71  and  _72
REMARK   33  A    between atoms: _75  and  _77
REMARK   34  A    between atoms: _77  and  _78
REMARK   35  A    between atoms: _77  and  _80
REMARK   36  A    between atoms: _80  and  _81
REMARK   37  A    between atoms: _84  and  _86
REMARK   38  A    between atoms: _86  and  _87
REMARK   39  A    between atoms: _86  and  _89
REMARK   40  A    between atoms: _89  and  _90
REMARK   41  A    between atoms: _95  and  _96
REMARK   42  A    between atoms: _98  and  _100
REMARK   43  A    between atoms: _100  and  _101
REMARK   44  A    between atoms: _100  and  _103
REMARK   45  A    between atoms: _103  and  _104
REMARK   46  A    between atoms: _107  and  _109
REMARK   47  A    between atoms: _109  and  _110
REMARK   48  A    between atoms: _109  and  _112
REMARK   49  A    between atoms: _112  and  _113
REMARK   50  A    between atoms: _116  and  _118
REMARK   51  A    between atoms: _118  and  _119
REMARK   52  A    between atoms: _118  and  _121
REMARK   53  A    between atoms: _124  and  _126
REMARK   54  A    between atoms: _126  and  _127
REMARK   55  A    between atoms: _126  and  _129
REMARK   56  A    between atoms: _129  and  _130
REMARK   57  A    between atoms: _130  and  _131
REMARK   58  A    between atoms: _131  and  _132
REMARK   59  A    between atoms: _141  and  _143
REMARK   60  A    between atoms: _143  and  _144
REMARK   61  A    between atoms: _143  and  _146
REMARK   62  A    between atoms: _146  and  _147
REMARK   63  A    between atoms: _152  and  _154
REMARK   64  A    between atoms: _154  and  _155
REMARK   65  A    between atoms: _154  and  _157
REMARK   66  A    between atoms: _157  and  _158
REMARK   67  A    between atoms: _158  and  _159
REMARK   68  A    between atoms: _162  and  _164
REMARK   69  A    between atoms: _164  and  _165
REMARK   70  A    between atoms: _164  and  _167
REMARK   71  A    between atoms: _167  and  _168
REMARK   72  A    between atoms: _168  and  _169
REMARK   73  A    between atoms: _169  and  _170
REMARK   74  A    between atoms: _170  and  _171
REMARK   75  A    between atoms: _175  and  _177
REMARK   76  A    between atoms: _177  and  _178
REMARK   77  A    between atoms: _177  and  _180
REMARK   78  A    between atoms: _183  and  _185
REMARK   79  A    between atoms: _185  and  _186
REMARK   80  A    between atoms: _185  and  _188
REMARK   81  A    between atoms: _188  and  _189
REMARK   82  A    between atoms: _191  and  _193
REMARK   83  A    between atoms: _193  and  _194
REMARK   84  A    between atoms: _193  and  _196
REMARK   85  A    between atoms: _196  and  _197
REMARK   86  A    between atoms: _199  and  _201
REMARK   87  A    between atoms: _201  and  _202
REMARK   88  A    between atoms: _201  and  _204
REMARK   89  A    between atoms: _204  and  _205
REMARK   90  A    between atoms: _211  and  _213
REMARK   91  A    between atoms: _213  and  _214
REMARK   92  A    between atoms: _213  and  _216
REMARK   93  A    between atoms: _216  and  _217
REMARK   94  A    between atoms: _220  and  _222
REMARK   95  A    between atoms: _222  and  _223
REMARK   96  A    between atoms: _222  and  _225
REMARK   97  A    between atoms: _225  and  _226
REMARK   98  A    between atoms: _229  and  _231
REMARK   99  A    between atoms: _231  and  _232
REMARK  100  A    between atoms: _231  and  _234
REMARK  101  A    between atoms: _234  and  _235
REMARK  102  A    between atoms: _238  and  _240
REMARK  103  A    between atoms: _240  and  _241
REMARK  104  A    between atoms: _240  and  _243
REMARK  105  A    between atoms: _243  and  _244
REMARK  106  A    between atoms: _244  and  _245
REMARK  107  A    between atoms: _247  and  _249
REMARK  108  A    between atoms: _249  and  _250
REMARK  109  A    between atoms: _249  and  _252
REMARK  110  A    between atoms: _252  and  _253
REMARK  111  A    between atoms: _259  and  _261
REMARK  112  A    between atoms: _261  and  _262
REMARK  113  A    between atoms: _261  and  _264
REMARK  114  A    between atoms: _266  and  _268
REMARK  115  A    between atoms: _268  and  _269
REMARK  116  A    between atoms: _272  and  _274
REMARK  117  A    between atoms: _274  and  _275
REMARK  118  A    between atoms: _277  and  _279
REMARK  119  A    between atoms: _279  and  _280
REMARK  120  A    between atoms: _279  and  _282
REMARK  121  A    between atoms: _282  and  _283
REMARK  122  A    between atoms: _283  and  _284
REMARK  123  A    between atoms: _287  and  _289
REMARK  124  A    between atoms: _289  and  _290
REMARK  125  A    between atoms: _289  and  _292
REMARK  126  A    between atoms: _292  and  _293
REMARK  127  A    between atoms: _296  and  _298
REMARK  128  A    between atoms: _298  and  _299
REMARK  129  A    between atoms: _302  and  _304
REMARK  130  A    between atoms: _304  and  _305
REMARK  131  A    between atoms: _304  and  _307
REMARK  132  A    between atoms: _307  and  _308
REMARK  133  A    between atoms: _308  and  _431
REMARK  134  A    between atoms: _309  and  _311
REMARK  135  A    between atoms: _311  and  _312
REMARK  136  A    between atoms: _311  and  _314
REMARK  137  A    between atoms: _314  and  _315
REMARK  138  A    between atoms: _315  and  _316
REMARK  139  A    between atoms: _321  and  _323
REMARK  140  A    between atoms: _323  and  _324
REMARK  141  A    between atoms: _326  and  _328
REMARK  142  A    between atoms: _328  and  _329
REMARK  143  A    between atoms: _328  and  _331
REMARK  144  A    between atoms: _331  and  _332
REMARK  145  A    between atoms: _335  and  _337
REMARK  146  A    between atoms: _337  and  _338
REMARK  147  A    between atoms: _337  and  _340
REMARK  148  A    between atoms: _340  and  _341
REMARK  149  A    between atoms: _343  and  _345
REMARK  150  A    between atoms: _345  and  _346
REMARK  151  A    between atoms: _348  and  _350
REMARK  152  A    between atoms: _350  and  _351
REMARK  153  A    between atoms: _353  and  _355
REMARK  154  A    between atoms: _355  and  _356
REMARK  155  A    between atoms: _355  and  _358
REMARK  156  A    between atoms: _358  and  _359
REMARK  157  A    between atoms: _364  and  _366
REMARK  158  A    between atoms: _366  and  _367
REMARK  159  A    between atoms: _366  and  _369
REMARK  160  A    between atoms: _369  and  _370
REMARK  161  A    between atoms: _373  and  _375
REMARK  162  A    between atoms: _375  and  _376
REMARK  163  A    between atoms: _375  and  _378
REMARK  164  A    between atoms: _381  and  _383
REMARK  165  A    between atoms: _383  and  _384
REMARK  166  A    between atoms: _383  and  _386
REMARK  167  A    between atoms: _386  and  _387
REMARK  168  A    between atoms: _389  and  _391
REMARK  169  A    between atoms: _391  and  _392
REMARK  170  A    between atoms: _391  and  _394
REMARK  171  A    between atoms: _394  and  _395
REMARK  172  A    between atoms: _405  and  _407
REMARK  173  A    between atoms: _407  and  _408
REMARK  174  A    between atoms: _410  and  _412
REMARK  175  A    between atoms: _412  and  _413
REMARK  176  A    between atoms: _412  and  _415
REMARK  177  A    between atoms: _415  and  _416
REMARK  178  A    between atoms: _416  and  _417
REMARK  179  A    between atoms: _420  and  _422
REMARK  180  A    between atoms: _422  and  _423
REMARK  181  A    between atoms: _425  and  _427
REMARK  182  A    between atoms: _427  and  _428
REMARK  183  A    between atoms: _427  and  _430
REMARK  184  A    between atoms: _430  and  _431
REMARK  185  A    between atoms: _432  and  _434
REMARK  186  A    between atoms: _434  and  _435
REMARK  187  A    between atoms: _438  and  _440
REMARK  188  A    between atoms: _440  and  _441
REMARK  189  A    between atoms: _440  and  _443
REMARK  190  A    between atoms: _443  and  _444
REMARK  191  A    between atoms: _444  and  _445
REMARK  192  A    between atoms: _445  and  _446
REMARK  193  A    between atoms: _455  and  _457
REMARK  194  A    between atoms: _457  and  _458
REMARK  195  A    between atoms: _457  and  _460
REMARK  196  A    between atoms: _460  and  _461
REMARK  197  A    between atoms: _461  and  _462
REMARK  198  A    between atoms: _462  and  _463
REMARK  199  A    between atoms: _463  and  _464
REMARK  200  A    between atoms: _468  and  _470
REMARK  201  A    between atoms: _470  and  _471
REMARK  202  A    between atoms: _470  and  _473
REMARK  203  A    between atoms: _473  and  _474
REMARK  204  A    between atoms: _479  and  _480
REMARK  205  A    between atoms: _482  and  _484
REMARK  206  A    between atoms: _484  and  _485
REMARK  207  A    between atoms: _487  and  _489
REMARK  208  A    between atoms: _489  and  _490
REMARK  209  A    between atoms: _489  and  _492
REMARK  210  A    between atoms: _492  and  _493
REMARK  211  A    between atoms: _496  and  _498
REMARK  212  A    between atoms: _498  and  _499
REMARK  213  A    between atoms: _498  and  _501
REMARK  214  A    between atoms: _501  and  _502
REMARK  215  A    between atoms: _507  and  _508
REMARK  216  A    between atoms: _510  and  _512
REMARK  217  A    between atoms: _512  and  _513
REMARK  218  A    between atoms: _512  and  _515
REMARK  219  A    between atoms: _515  and  _516
REMARK                            x       y       z     vdW  Elec       q    Type
REMARK                         _______ _______ _______ _____ _____    ______ ____
ROOT
ATOM      1  O   HOH     1      -0.429   1.506  19.308  0.00  0.00    +0.000 OA
ENDROOT
TORSDOF 0
REMARK  Name = ../refined-set-2016/2vvu/2vvu_pocket.pdb
REMARK  219 active torsions:
REMARK  status: ('A' for Active; 'I' for Inactive)
REMARK    1  A    between atoms: _1  and  _5
REMARK    2  A    between atoms: _5  and  _6
REMARK    3  A    between atoms: _5  and  _8
REMARK    4  A    between atoms: _8  and  _9
REMARK    5  A    between atoms: _12  and  _14
REMARK    6  A    between atoms: _14  and  _15
REMARK    7  A    between atoms: _14  and  _17
REMARK    8  A    between atoms: _20  and  _22
REMARK    9  A    between atoms: _22  and  _23
REMARK   10  A    between atoms: _22  and  _25
REMARK   11  A    between atoms: _25  and  _26
REMARK   12  A    between atoms: _31  and  _33
REMARK   13  A    between atoms: _33  and  _34
REMARK   14  A    between atoms: _33  and  _36
REMARK   15  A    between atoms: _36  and  _37
REMARK   16  A    between atoms: _37  and  _38
REMARK   17  A    between atoms: _43  and  _45
REMARK   18  A    between atoms: _45  and  _46
REMARK   19  A    between atoms: _45  and  _48
REMARK   20  A    between atoms: _48  and  _49
REMARK   21  A    between atoms: _52  and  _54
REMARK   22  A    between atoms: _54  and  _55
REMARK   23  A    between atoms: _54  and  _57
REMARK   24  A    between atoms: _57  and  _58
REMARK   25  A    between atoms: _58  and  _59
REMARK   26  A    between atoms: _59  and  _60
REMARK   27  A    between atoms: _60  and  _61
REMARK   28  A    between atoms: _65  and  _67
REMARK   29  A    between atoms: _67  and  _68
REMARK   30  A    between atoms: _67  and  _70
REMARK   31  A    between atoms: _70  and  _71
REMARK   32  A    between atoms: _71  and  _72
REMARK   33  A    between atoms: _75  and  _77
REMARK   34  A    between atoms: _77  and  _78
REMARK   35  A    between atoms: _77  and  _80
REMARK   36  A    between atoms: _80  and  _81
REMARK   37  A    between atoms: _84  and  _86
REMARK   38  A    between atoms: _86  and  _87
REMARK   39  A    between atoms: _86  and  _89
REMARK   40  A    between atoms: _89  and  _90
REMARK   41  A    between atoms: _95  and  _96
REMARK   42  A    between atoms: _98  and  _100
REMARK   43  A    between atoms: _100  and  _101
REMARK   44  A    between atoms: _100  and  _103
REMARK   45  A    between atoms: _103  and  _104
REMARK   46  A    between atoms: _107  and  _109
REMARK   47  A    between atoms: _109  and  _110
REMARK   48  A    between atoms: _109  and  _112
REMARK   49  A    between atoms: _112  and  _113
REMARK   50  A    between atoms: _116  and  _118
REMARK   51  A    between atoms: _118  and  _119
REMARK   52  A    between atoms: _118  and  _121
REMARK   53  A    between atoms: _124  and  _126
REMARK   54  A    between atoms: _126  and  _127
REMARK   55  A    between atoms: _126  and  _129
REMARK   56  A    between atoms: _129  and  _130
REMARK   57  A    between atoms: _130  and  _131
REMARK   58  A    between atoms: _131  and  _132
REMARK   59  A    between atoms: _141  and  _143
REMARK   60  A    between atoms: _143  and  _144
REMARK   61  A    between atoms: _143  and  _146
REMARK   62  A    between atoms: _146  and  _147
REMARK   63  A    between atoms: _152  and  _154
REMARK   64  A    between atoms: _154  and  _155
REMARK   65  A    between atoms: _154  and  _157
REMARK   66  A    between atoms: _157  and  _158
REMARK   67  A    between atoms: _158  and  _159
REMARK   68  A    between atoms: _162  and  _164
REMARK   69  A    between atoms: _164  and  _165
REMARK   70  A    between atoms: _164  and  _167
REMARK   71  A    between atoms: _167  and  _168
REMARK   72  A    between atoms: _168  and  _169
REMARK   73  A    between atoms: _169  and  _170
REMARK   74  A    between atoms: _170  and  _171
REMARK   75  A    between atoms: _175  and  _177
REMARK   76  A    between atoms: _177  and  _178
REMARK   77  A    between atoms: _177  and  _180
REMARK   78  A    between atoms: _183  and  _185
REMARK   79  A    between atoms: _185  and  _186
REMARK   80  A    between atoms: _185  and  _188
REMARK   81  A    between atoms: _188  and  _189
REMARK   82  A    between atoms: _191  and  _193
REMARK   83  A    between atoms: _193  and  _194
REMARK   84  A    between atoms: _193  and  _196
REMARK   85  A    between atoms: _196  and  _197
REMARK   86  A    between atoms: _199  and  _201
REMARK   87  A    between atoms: _201  and  _202
REMARK   88  A    between atoms: _201  and  _204
REMARK   89  A    between atoms: _204  and  _205
REMARK   90  A    between atoms: _211  and  _213
REMARK   91  A    between atoms: _213  and  _214
REMARK   92  A    between atoms: _213  and  _216
REMARK   93  A    between atoms: _216  and  _217
REMARK   94  A    between atoms: _220  and  _222
REMARK   95  A    between atoms: _222  and  _223
REMARK   96  A    between atoms: _222  and  _225
REMARK   97  A    between atoms: _225  and  _226
REMARK   98  A    between atoms: _229  and  _231
REMARK   99  A    between atoms: _231  and  _232
REMARK  100  A    between atoms: _231  and  _234
REMARK  101  A    between atoms: _234  and  _235
REMARK  102  A    between atoms: _238  and  _240
REMARK  103  A    between atoms: _240  and  _241
REMARK  104  A    between atoms: _240  and  _243
REMARK  105  A    between atoms: _243  and  _244
REMARK  106  A    between atoms: _244  and  _245
REMARK  107  A    between atoms: _247  and  _249
REMARK  108  A    between atoms: _249  and  _250
REMARK  109  A    between atoms: _249  and  _252
REMARK  110  A    between atoms: _252  and  _253
REMARK  111  A    between atoms: _259  and  _261
REMARK  112  A    between atoms: _261  and  _262
REMARK  113  A    between atoms: _261  and  _264
REMARK  114  A    between atoms: _266  and  _268
REMARK  115  A    between atoms: _268  and  _269
REMARK  116  A    between atoms: _272  and  _274
REMARK  117  A    between atoms: _274  and  _275
REMARK  118  A    between atoms: _277  and  _279
REMARK  119  A    between atoms: _279  and  _280
REMARK  120  A    between atoms: _279  and  _282
REMARK  121  A    between atoms: _282  and  _283
REMARK  122  A    between atoms: _283  and  _284
REMARK  123  A    between atoms: _287  and  _289
REMARK  124  A    between atoms: _289  and  _290
REMARK  125  A    between atoms: _289  and  _292
REMARK  126  A    between atoms: _292  and  _293
REMARK  127  A    between atoms: _296  and  _298
REMARK  128  A    between atoms: _298  and  _299
REMARK  129  A    between atoms: _302  and  _304
REMARK  130  A    between atoms: _304  and  _305
REMARK  131  A    between atoms: _304  and  _307
REMARK  132  A    between atoms: _307  and  _308
REMARK  133  A    between atoms: _308  and  _431
REMARK  134  A    between atoms: _309  and  _311
REMARK  135  A    between atoms: _311  and  _312
REMARK  136  A    between atoms: _311  and  _314
REMARK  137  A    between atoms: _314  and  _315
REMARK  138  A    between atoms: _315  and  _316
REMARK  139  A    between atoms: _321  and  _323
REMARK  140  A    between atoms: _323  and  _324
REMARK  141  A    between atoms: _326  and  _328
REMARK  142  A    between atoms: _328  and  _329
REMARK  143  A    between atoms: _328  and  _331
REMARK  144  A    between atoms: _331  and  _332
REMARK  145  A    between atoms: _335  and  _337
REMARK  146  A    between atoms: _337  and  _338
REMARK  147  A    between atoms: _337  and  _340
REMARK  148  A    between atoms: _340  and  _341
REMARK  149  A    between atoms: _343  and  _345
REMARK  150  A    between atoms: _345  and  _346
REMARK  151  A    between atoms: _348  and  _350
REMARK  152  A    between atoms: _350  and  _351
REMARK  153  A    between atoms: _353  and  _355
REMARK  154  A    between atoms: _355  and  _356
REMARK  155  A    between atoms: _355  and  _358
REMARK  156  A    between atoms: _358  and  _359
REMARK  157  A    between atoms: _364  and  _366
REMARK  158  A    between atoms: _366  and  _367
REMARK  159  A    between atoms: _366  and  _369
REMARK  160  A    between atoms: _369  and  _370
REMARK  161  A    between atoms: _373  and  _375
REMARK  162  A    between atoms: _375  and  _376
REMARK  163  A    between atoms: _375  and  _378
REMARK  164  A    between atoms: _381  and  _383
REMARK  165  A    between atoms: _383  and  _384
REMARK  166  A    between atoms: _383  and  _386
REMARK  167  A    between atoms: _386  and  _387
REMARK  168  A    between atoms: _389  and  _391
REMARK  169  A    between atoms: _391  and  _392
REMARK  170  A    between atoms: _391  and  _394
REMARK  171  A    between atoms: _394  and  _395
REMARK  172  A    between atoms: _405  and  _407
REMARK  173  A    between atoms: _407  and  _408
REMARK  174  A    between atoms: _410  and  _412
REMARK  175  A    between atoms: _412  and  _413
REMARK  176  A    between atoms: _412  and  _415
REMARK  177  A    between atoms: _415  and  _416
REMARK  178  A    between atoms: _416  and  _417
REMARK  179  A    between atoms: _420  and  _422
REMARK  180  A    between atoms: _422  and  _423
REMARK  181  A    between atoms: _425  and  _427
REMARK  182  A    between atoms: _427  and  _428
REMARK  183  A    between atoms: _427  and  _430
REMARK  184  A    between atoms: _430  and  _431
REMARK  185  A    between atoms: _432  and  _434
REMARK  186  A    between atoms: _434  and  _435
REMARK  187  A    between atoms: _438  and  _440
REMARK  188  A    between atoms: _440  and  _441
REMARK  189  A    between atoms: _440  and  _443
REMARK  190  A    between atoms: _443  and  _444
REMARK  191  A    between atoms: _444  and  _445
REMARK  192  A    between atoms: _445  and  _446
REMARK  193  A    between atoms: _455  and  _457
REMARK  194  A    between atoms: _457  and  _458
REMARK  195  A    between atoms: _457  and  _460
REMARK  196  A    between atoms: _460  and  _461
REMARK  197  A    between atoms: _461  and  _462
REMARK  198  A    between atoms: _462  and  _463
REMARK  199  A    between atoms: _463  and  _464
REMARK  200  A    between atoms: _468  and  _470
REMARK  201  A    between atoms: _470  and  _471
REMARK  202  A    between atoms: _470  and  _473
REMARK  203  A    between atoms: _473  and  _474
REMARK  204  A    between atoms: _479  and  _480
REMARK  205  A    between atoms: _482  and  _484
REMARK  206  A    between atoms: _484  and  _485
REMARK  207  A    between atoms: _487  and  _489
REMARK  208  A    between atoms: _489  and  _490
REMARK  209  A    between atoms: _489  and  _492
REMARK  210  A    between atoms: _492  and  _493
REMARK  211  A    between atoms: _496  and  _498
REMARK  212  A    between atoms: _498  and  _499
REMARK  213  A    between atoms: _498  and  _501
REMARK  214  A    between atoms: _501  and  _502
REMARK  215  A    between atoms: _507  and  _508
REMARK  216  A    between atoms: _510  and  _512
REMARK  217  A    between atoms: _512  and  _513
REMARK  218  A    between atoms: _512  and  _515
REMARK  219  A    between atoms: _515  and  _516
REMARK                            x       y       z     vdW  Elec       q    Type
REMARK                         _______ _______ _______ _____ _____    ______ ____
ROOT
ATOM      1  O   HOH     1      -4.205  16.248  27.071  0.00  0.00    +0.000 OA
ENDROOT
TORSDOF 0
REMARK  Name = ../refined-set-2016/2vvu/2vvu_pocket.pdb
REMARK  219 active torsions:
REMARK  status: ('A' for Active; 'I' for Inactive)
REMARK    1  A    between atoms: _1  and  _5
REMARK    2  A    between atoms: _5  and  _6
REMARK    3  A    between atoms: _5  and  _8
REMARK    4  A    between atoms: _8  and  _9
REMARK    5  A    between atoms: _12  and  _14
REMARK    6  A    between atoms: _14  and  _15
REMARK    7  A    between atoms: _14  and  _17
REMARK    8  A    between atoms: _20  and  _22
REMARK    9  A    between atoms: _22  and  _23
REMARK   10  A    between atoms: _22  and  _25
REMARK   11  A    between atoms: _25  and  _26
REMARK   12  A    between atoms: _31  and  _33
REMARK   13  A    between atoms: _33  and  _34
REMARK   14  A    between atoms: _33  and  _36
REMARK   15  A    between atoms: _36  and  _37
REMARK   16  A    between atoms: _37  and  _38
REMARK   17  A    between atoms: _43  and  _45
REMARK   18  A    between atoms: _45  and  _46
REMARK   19  A    between atoms: _45  and  _48
REMARK   20  A    between atoms: _48  and  _49
REMARK   21  A    between atoms: _52  and  _54
REMARK   22  A    between atoms: _54  and  _55
REMARK   23  A    between atoms: _54  and  _57
REMARK   24  A    between atoms: _57  and  _58
REMARK   25  A    between atoms: _58  and  _59
REMARK   26  A    between atoms: _59  and  _60
REMARK   27  A    between atoms: _60  and  _61
REMARK   28  A    between atoms: _65  and  _67
REMARK   29  A    between atoms: _67  and  _68
REMARK   30  A    between atoms: _67  and  _70
REMARK   31  A    between atoms: _70  and  _71
REMARK   32  A    between atoms: _71  and  _72
REMARK   33  A    between atoms: _75  and  _77
REMARK   34  A    between atoms: _77  and  _78
REMARK   35  A    between atoms: _77  and  _80
REMARK   36  A    between atoms: _80  and  _81
REMARK   37  A    between atoms: _84  and  _86
REMARK   38  A    between atoms: _86  and  _87
REMARK   39  A    between atoms: _86  and  _89
REMARK   40  A    between atoms: _89  and  _90
REMARK   41  A    between atoms: _95  and  _96
REMARK   42  A    between atoms: _98  and  _100
REMARK   43  A    between atoms: _100  and  _101
REMARK   44  A    between atoms: _100  and  _103
REMARK   45  A    between atoms: _103  and  _104
REMARK   46  A    between atoms: _107  and  _109
REMARK   47  A    between atoms: _109  and  _110
REMARK   48  A    between atoms: _109  and  _112
REMARK   49  A    between atoms: _112  and  _113
REMARK   50  A    between atoms: _116  and  _118
REMARK   51  A    between atoms: _118  and  _119
REMARK   52  A    between atoms: _118  and  _121
REMARK   53  A    between atoms: _124  and  _126
REMARK   54  A    between atoms: _126  and  _127
REMARK   55  A    between atoms: _126  and  _129
REMARK   56  A    between atoms: _129  and  _130
REMARK   57  A    between atoms: _130  and  _131
REMARK   58  A    between atoms: _131  and  _132
REMARK   59  A    between atoms: _141  and  _143
REMARK   60  A    between atoms: _143  and  _144
REMARK   61  A    between atoms: _143  and  _146
REMARK   62  A    between atoms: _146  and  _147
REMARK   63  A    between atoms: _152  and  _154
REMARK   64  A    between atoms: _154  and  _155
REMARK   65  A    between atoms: _154  and  _157
REMARK   66  A    between atoms: _157  and  _158
REMARK   67  A    between atoms: _158  and  _159
REMARK   68  A    between atoms: _162  and  _164
REMARK   69  A    between atoms: _164  and  _165
REMARK   70  A    between atoms: _164  and  _167
REMARK   71  A    between atoms: _167  and  _168
REMARK   72  A    between atoms: _168  and  _169
REMARK   73  A    between atoms: _169  and  _170
REMARK   74  A    between atoms: _170  and  _171
REMARK   75  A    between atoms: _175  and  _177
REMARK   76  A    between atoms: _177  and  _178
REMARK   77  A    between atoms: _177  and  _180
REMARK   78  A    between atoms: _183  and  _185
REMARK   79  A    between atoms: _185  and  _186
REMARK   80  A    between atoms: _185  and  _188
REMARK   81  A    between atoms: _188  and  _189
REMARK   82  A    between atoms: _191  and  _193
REMARK   83  A    between atoms: _193  and  _194
REMARK   84  A    between atoms: _193  and  _196
REMARK   85  A    between atoms: _196  and  _197
REMARK   86  A    between atoms: _199  and  _201
REMARK   87  A    between atoms: _201  and  _202
REMARK   88  A    between atoms: _201  and  _204
REMARK   89  A    between atoms: _204  and  _205
REMARK   90  A    between atoms: _211  and  _213
REMARK   91  A    between atoms: _213  and  _214
REMARK   92  A    between atoms: _213  and  _216
REMARK   93  A    between atoms: _216  and  _217
REMARK   94  A    between atoms: _220  and  _222
REMARK   95  A    between atoms: _222  and  _223
REMARK   96  A    between atoms: _222  and  _225
REMARK   97  A    between atoms: _225  and  _226
REMARK   98  A    between atoms: _229  and  _231
REMARK   99  A    between atoms: _231  and  _232
REMARK  100  A    between atoms: _231  and  _234
REMARK  101  A    between atoms: _234  and  _235
REMARK  102  A    between atoms: _238  and  _240
REMARK  103  A    between atoms: _240  and  _241
REMARK  104  A    between atoms: _240  and  _243
REMARK  105  A    between atoms: _243  and  _244
REMARK  106  A    between atoms: _244  and  _245
REMARK  107  A    between atoms: _247  and  _249
REMARK  108  A    between atoms: _249  and  _250
REMARK  109  A    between atoms: _249  and  _252
REMARK  110  A    between atoms: _252  and  _253
REMARK  111  A    between atoms: _259  and  _261
REMARK  112  A    between atoms: _261  and  _262
REMARK  113  A    between atoms: _261  and  _264
REMARK  114  A    between atoms: _266  and  _268
REMARK  115  A    between atoms: _268  and  _269
REMARK  116  A    between atoms: _272  and  _274
REMARK  117  A    between atoms: _274  and  _275
REMARK  118  A    between atoms: _277  and  _279
REMARK  119  A    between atoms: _279  and  _280
REMARK  120  A    between atoms: _279  and  _282
REMARK  121  A    between atoms: _282  and  _283
REMARK  122  A    between atoms: _283  and  _284
REMARK  123  A    between atoms: _287  and  _289
REMARK  124  A    between atoms: _289  and  _290
REMARK  125  A    between atoms: _289  and  _292
REMARK  126  A    between atoms: _292  and  _293
REMARK  127  A    between atoms: _296  and  _298
REMARK  128  A    between atoms: _298  and  _299
REMARK  129  A    between atoms: _302  and  _304
REMARK  130  A    between atoms: _304  and  _305
REMARK  131  A    between atoms: _304  and  _307
REMARK  132  A    between atoms: _307  and  _308
REMARK  133  A    between atoms: _308  and  _431
REMARK  134  A    between atoms: _309  and  _311
REMARK  135  A    between atoms: _311  and  _312
REMARK  136  A    between atoms: _311  and  _314
REMARK  137  A    between atoms: _314  and  _315
REMARK  138  A    between atoms: _315  and  _316
REMARK  139  A    between atoms: _321  and  _323
REMARK  140  A    between atoms: _323  and  _324
REMARK  141  A    between atoms: _326  and  _328
REMARK  142  A    between atoms: _328  and  _329
REMARK  143  A    between atoms: _328  and  _331
REMARK  144  A    between atoms: _331  and  _332
REMARK  145  A    between atoms: _335  and  _337
REMARK  146  A    between atoms: _337  and  _338
REMARK  147  A    between atoms: _337  and  _340
REMARK  148  A    between atoms: _340  and  _341
REMARK  149  A    between atoms: _343  and  _345
REMARK  150  A    between atoms: _345  and  _346
REMARK  151  A    between atoms: _348  and  _350
REMARK  152  A    between atoms: _350  and  _351
REMARK  153  A    between atoms: _353  and  _355
REMARK  154  A    between atoms: _355  and  _356
REMARK  155  A    between atoms: _355  and  _358
REMARK  156  A    between atoms: _358  and  _359
REMARK  157  A    between atoms: _364  and  _366
REMARK  158  A    between atoms: _366  and  _367
REMARK  159  A    between atoms: _366  and  _369
REMARK  160  A    between atoms: _369  and  _370
REMARK  161  A    between atoms: _373  and  _375
REMARK  162  A    between atoms: _375  and  _376
REMARK  163  A    between atoms: _375  and  _378
REMARK  164  A    between atoms: _381  and  _383
REMARK  165  A    between atoms: _383  and  _384
REMARK  166  A    between atoms: _383  and  _386
REMARK  167  A    between atoms: _386  and  _387
REMARK  168  A    between atoms: _389  and  _391
REMARK  169  A    between atoms: _391  and  _392
REMARK  170  A    between atoms: _391  and  _394
REMARK  171  A    between atoms: _394  and  _395
REMARK  172  A    between atoms: _405  and  _407
REMARK  173  A    between atoms: _407  and  _408
REMARK  174  A    between atoms: _410  and  _412
REMARK  175  A    between atoms: _412  and  _413
REMARK  176  A    between atoms: _412  and  _415
REMARK  177  A    between atoms: _415  and  _416
REMARK  178  A    between atoms: _416  and  _417
REMARK  179  A    between atoms: _420  and  _422
REMARK  180  A    between atoms: _422  and  _423
REMARK  181  A    between atoms: _425  and  _427
REMARK  182  A    between atoms: _427  and  _428
REMARK  183  A    between atoms: _427  and  _430
REMARK  184  A    between atoms: _430  and  _431
REMARK  185  A    between atoms: _432  and  _434
REMARK  186  A    between atoms: _434  and  _435
REMARK  187  A    between atoms: _438  and  _440
REMARK  188  A    between atoms: _440  and  _441
REMARK  189  A    between atoms: _440  and  _443
REMARK  190  A    between atoms: _443  and  _444
REMARK  191  A    between atoms: _444  and  _445
REMARK  192  A    between atoms: _445  and  _446
REMARK  193  A    between atoms: _455  and  _457
REMARK  194  A    between atoms: _457  and  _458
REMARK  195  A    between atoms: _457  and  _460
REMARK  196  A    between atoms: _460  and  _461
REMARK  197  A    between atoms: _461  and  _462
REMARK  198  A    between atoms: _462  and  _463
REMARK  199  A    between atoms: _463  and  _464
REMARK  200  A    between atoms: _468  and  _470
REMARK  201  A    between atoms: _470  and  _471
REMARK  202  A    between atoms: _470  and  _473
REMARK  203  A    between atoms: _473  and  _474
REMARK  204  A    between atoms: _479  and  _480
REMARK  205  A    between atoms: _482  and  _484
REMARK  206  A    between atoms: _484  and  _485
REMARK  207  A    between atoms: _487  and  _489
REMARK  208  A    between atoms: _489  and  _490
REMARK  209  A    between atoms: _489  and  _492
REMARK  210  A    between atoms: _492  and  _493
REMARK  211  A    between atoms: _496  and  _498
REMARK  212  A    between atoms: _498  and  _499
REMARK  213  A    between atoms: _498  and  _501
REMARK  214  A    between atoms: _501  and  _502
REMARK  215  A    between atoms: _507  and  _508
REMARK  216  A    between atoms: _510  and  _512
REMARK  217  A    between atoms: _512  and  _513
REMARK  218  A    between atoms: _512  and  _515
REMARK  219  A    between atoms: _515  and  _516
REMARK                            x       y       z     vdW  Elec       q    Type
REMARK                         _______ _______ _______ _____ _____    ______ ____
ROOT
ATOM      1  O   HOH     1     -11.130   2.010  15.710  0.00  0.00    +0.000 OA
ENDROOT
TORSDOF 0
REMARK  Name = ../refined-set-2016/2vvu/2vvu_pocket.pdb
REMARK  219 active torsions:
REMARK  status: ('A' for Active; 'I' for Inactive)
REMARK    1  A    between atoms: _1  and  _5
REMARK    2  A    between atoms: _5  and  _6
REMARK    3  A    between atoms: _5  and  _8
REMARK    4  A    between atoms: _8  and  _9
REMARK    5  A    between atoms: _12  and  _14
REMARK    6  A    between atoms: _14  and  _15
REMARK    7  A    between atoms: _14  and  _17
REMARK    8  A    between atoms: _20  and  _22
REMARK    9  A    between atoms: _22  and  _23
REMARK   10  A    between atoms: _22  and  _25
REMARK   11  A    between atoms: _25  and  _26
REMARK   12  A    between atoms: _31  and  _33
REMARK   13  A    between atoms: _33  and  _34
REMARK   14  A    between atoms: _33  and  _36
REMARK   15  A    between atoms: _36  and  _37
REMARK   16  A    between atoms: _37  and  _38
REMARK   17  A    between atoms: _43  and  _45
REMARK   18  A    between atoms: _45  and  _46
REMARK   19  A    between atoms: _45  and  _48
REMARK   20  A    between atoms: _48  and  _49
REMARK   21  A    between atoms: _52  and  _54
REMARK   22  A    between atoms: _54  and  _55
REMARK   23  A    between atoms: _54  and  _57
REMARK   24  A    between atoms: _57  and  _58
REMARK   25  A    between atoms: _58  and  _59
REMARK   26  A    between atoms: _59  and  _60
REMARK   27  A    between atoms: _60  and  _61
REMARK   28  A    between atoms: _65  and  _67
REMARK   29  A    between atoms: _67  and  _68
REMARK   30  A    between atoms: _67  and  _70
REMARK   31  A    between atoms: _70  and  _71
REMARK   32  A    between atoms: _71  and  _72
REMARK   33  A    between atoms: _75  and  _77
REMARK   34  A    between atoms: _77  and  _78
REMARK   35  A    between atoms: _77  and  _80
REMARK   36  A    between atoms: _80  and  _81
REMARK   37  A    between atoms: _84  and  _86
REMARK   38  A    between atoms: _86  and  _87
REMARK   39  A    between atoms: _86  and  _89
REMARK   40  A    between atoms: _89  and  _90
REMARK   41  A    between atoms: _95  and  _96
REMARK   42  A    between atoms: _98  and  _100
REMARK   43  A    between atoms: _100  and  _101
REMARK   44  A    between atoms: _100  and  _103
REMARK   45  A    between atoms: _103  and  _104
REMARK   46  A    between atoms: _107  and  _109
REMARK   47  A    between atoms: _109  and  _110
REMARK   48  A    between atoms: _109  and  _112
REMARK   49  A    between atoms: _112  and  _113
REMARK   50  A    between atoms: _116  and  _118
REMARK   51  A    between atoms: _118  and  _119
REMARK   52  A    between atoms: _118  and  _121
REMARK   53  A    between atoms: _124  and  _126
REMARK   54  A    between atoms: _126  and  _127
REMARK   55  A    between atoms: _126  and  _129
REMARK   56  A    between atoms: _129  and  _130
REMARK   57  A    between atoms: _130  and  _131
REMARK   58  A    between atoms: _131  and  _132
REMARK   59  A    between atoms: _141  and  _143
REMARK   60  A    between atoms: _143  and  _144
REMARK   61  A    between atoms: _143  and  _146
REMARK   62  A    between atoms: _146  and  _147
REMARK   63  A    between atoms: _152  and  _154
REMARK   64  A    between atoms: _154  and  _155
REMARK   65  A    between atoms: _154  and  _157
REMARK   66  A    between atoms: _157  and  _158
REMARK   67  A    between atoms: _158  and  _159
REMARK   68  A    between atoms: _162  and  _164
REMARK   69  A    between atoms: _164  and  _165
REMARK   70  A    between atoms: _164  and  _167
REMARK   71  A    between atoms: _167  and  _168
REMARK   72  A    between atoms: _168  and  _169
REMARK   73  A    between atoms: _169  and  _170
REMARK   74  A    between atoms: _170  and  _171
REMARK   75  A    between atoms: _175  and  _177
REMARK   76  A    between atoms: _177  and  _178
REMARK   77  A    between atoms: _177  and  _180
REMARK   78  A    between atoms: _183  and  _185
REMARK   79  A    between atoms: _185  and  _186
REMARK   80  A    between atoms: _185  and  _188
REMARK   81  A    between atoms: _188  and  _189
REMARK   82  A    between atoms: _191  and  _193
REMARK   83  A    between atoms: _193  and  _194
REMARK   84  A    between atoms: _193  and  _196
REMARK   85  A    between atoms: _196  and  _197
REMARK   86  A    between atoms: _199  and  _201
REMARK   87  A    between atoms: _201  and  _202
REMARK   88  A    between atoms: _201  and  _204
REMARK   89  A    between atoms: _204  and  _205
REMARK   90  A    between atoms: _211  and  _213
REMARK   91  A    between atoms: _213  and  _214
REMARK   92  A    between atoms: _213  and  _216
REMARK   93  A    between atoms: _216  and  _217
REMARK   94  A    between atoms: _220  and  _222
REMARK   95  A    between atoms: _222  and  _223
REMARK   96  A    between atoms: _222  and  _225
REMARK   97  A    between atoms: _225  and  _226
REMARK   98  A    between atoms: _229  and  _231
REMARK   99  A    between atoms: _231  and  _232
REMARK  100  A    between atoms: _231  and  _234
REMARK  101  A    between atoms: _234  and  _235
REMARK  102  A    between atoms: _238  and  _240
REMARK  103  A    between atoms: _240  and  _241
REMARK  104  A    between atoms: _240  and  _243
REMARK  105  A    between atoms: _243  and  _244
REMARK  106  A    between atoms: _244  and  _245
REMARK  107  A    between atoms: _247  and  _249
REMARK  108  A    between atoms: _249  and  _250
REMARK  109  A    between atoms: _249  and  _252
REMARK  110  A    between atoms: _252  and  _253
REMARK  111  A    between atoms: _259  and  _261
REMARK  112  A    between atoms: _261  and  _262
REMARK  113  A    between atoms: _261  and  _264
REMARK  114  A    between atoms: _266  and  _268
REMARK  115  A    between atoms: _268  and  _269
REMARK  116  A    between atoms: _272  and  _274
REMARK  117  A    between atoms: _274  and  _275
REMARK  118  A    between atoms: _277  and  _279
REMARK  119  A    between atoms: _279  and  _280
REMARK  120  A    between atoms: _279  and  _282
REMARK  121  A    between atoms: _282  and  _283
REMARK  122  A    between atoms: _283  and  _284
REMARK  123  A    between atoms: _287  and  _289
REMARK  124  A    between atoms: _289  and  _290
REMARK  125  A    between atoms: _289  and  _292
REMARK  126  A    between atoms: _292  and  _293
REMARK  127  A    between atoms: _296  and  _298
REMARK  128  A    between atoms: _298  and  _299
REMARK  129  A    between atoms: _302  and  _304
REMARK  130  A    between atoms: _304  and  _305
REMARK  131  A    between atoms: _304  and  _307
REMARK  132  A    between atoms: _307  and  _308
REMARK  133  A    between atoms: _308  and  _431
REMARK  134  A    between atoms: _309  and  _311
REMARK  135  A    between atoms: _311  and  _312
REMARK  136  A    between atoms: _311  and  _314
REMARK  137  A    between atoms: _314  and  _315
REMARK  138  A    between atoms: _315  and  _316
REMARK  139  A    between atoms: _321  and  _323
REMARK  140  A    between atoms: _323  and  _324
REMARK  141  A    between atoms: _326  and  _328
REMARK  142  A    between atoms: _328  and  _329
REMARK  143  A    between atoms: _328  and  _331
REMARK  144  A    between atoms: _331  and  _332
REMARK  145  A    between atoms: _335  and  _337
REMARK  146  A    between atoms: _337  and  _338
REMARK  147  A    between atoms: _337  and  _340
REMARK  148  A    between atoms: _340  and  _341
REMARK  149  A    between atoms: _343  and  _345
REMARK  150  A    between atoms: _345  and  _346
REMARK  151  A    between atoms: _348  and  _350
REMARK  152  A    between atoms: _350  and  _351
REMARK  153  A    between atoms: _353  and  _355
REMARK  154  A    between atoms: _355  and  _356
REMARK  155  A    between atoms: _355  and  _358
REMARK  156  A    between atoms: _358  and  _359
REMARK  157  A    between atoms: _364  and  _366
REMARK  158  A    between atoms: _366  and  _367
REMARK  159  A    between atoms: _366  and  _369
REMARK  160  A    between atoms: _369  and  _370
REMARK  161  A    between atoms: _373  and  _375
REMARK  162  A    between atoms: _375  and  _376
REMARK  163  A    between atoms: _375  and  _378
REMARK  164  A    between atoms: _381  and  _383
REMARK  165  A    between atoms: _383  and  _384
REMARK  166  A    between atoms: _383  and  _386
REMARK  167  A    between atoms: _386  and  _387
REMARK  168  A    between atoms: _389  and  _391
REMARK  169  A    between atoms: _391  and  _392
REMARK  170  A    between atoms: _391  and  _394
REMARK  171  A    between atoms: _394  and  _395
REMARK  172  A    between atoms: _405  and  _407
REMARK  173  A    between atoms: _407  and  _408
REMARK  174  A    between atoms: _410  and  _412
REMARK  175  A    between atoms: _412  and  _413
REMARK  176  A    between atoms: _412  and  _415
REMARK  177  A    between atoms: _415  and  _416
REMARK  178  A    between atoms: _416  and  _417
REMARK  179  A    between atoms: _420  and  _422
REMARK  180  A    between atoms: _422  and  _423
REMARK  181  A    between atoms: _425  and  _427
REMARK  182  A    between atoms: _427  and  _428
REMARK  183  A    between atoms: _427  and  _430
REMARK  184  A    between atoms: _430  and  _431
REMARK  185  A    between atoms: _432  and  _434
REMARK  186  A    between atoms: _434  and  _435
REMARK  187  A    between atoms: _438  and  _440
REMARK  188  A    between atoms: _440  and  _441
REMARK  189  A    between atoms: _440  and  _443
REMARK  190  A    between atoms: _443  and  _444
REMARK  191  A    between atoms: _444  and  _445
REMARK  192  A    between atoms: _445  and  _446
REMARK  193  A    between atoms: _455  and  _457
REMARK  194  A    between atoms: _457  and  _458
REMARK  195  A    between atoms: _457  and  _460
REMARK  196  A    between atoms: _460  and  _461
REMARK  197  A    between atoms: _461  and  _462
REMARK  198  A    between atoms: _462  and  _463
REMARK  199  A    between atoms: _463  and  _464
REMARK  200  A    between atoms: _468  and  _470
REMARK  201  A    between atoms: _470  and  _471
REMARK  202  A    between atoms: _470  and  _473
REMARK  203  A    between atoms: _473  and  _474
REMARK  204  A    between atoms: _479  and  _480
REMARK  205  A    between atoms: _482  and  _484
REMARK  206  A    between atoms: _484  and  _485
REMARK  207  A    between atoms: _487  and  _489
REMARK  208  A    between atoms: _489  and  _490
REMARK  209  A    between atoms: _489  and  _492
REMARK  210  A    between atoms: _492  and  _493
REMARK  211  A    between atoms: _496  and  _498
REMARK  212  A    between atoms: _498  and  _499
REMARK  213  A    between atoms: _498  and  _501
REMARK  214  A    between atoms: _501  and  _502
REMARK  215  A    between atoms: _507  and  _508
REMARK  216  A    between atoms: _510  and  _512
REMARK  217  A    between atoms: _512  and  _513
REMARK  218  A    between atoms: _512  and  _515
REMARK  219  A    between atoms: _515  and  _516
REMARK                            x       y       z     vdW  Elec       q    Type
REMARK                         _______ _______ _______ _____ _____    ______ ____
ROOT
ATOM      1  O   HOH     1      -4.413   4.976  33.980  0.00  0.00    +0.000 OA
ENDROOT
TORSDOF 0
REMARK  Name = ../refined-set-2016/2vvu/2vvu_pocket.pdb
REMARK  219 active torsions:
REMARK  status: ('A' for Active; 'I' for Inactive)
REMARK    1  A    between atoms: _1  and  _5
REMARK    2  A    between atoms: _5  and  _6
REMARK    3  A    between atoms: _5  and  _8
REMARK    4  A    between atoms: _8  and  _9
REMARK    5  A    between atoms: _12  and  _14
REMARK    6  A    between atoms: _14  and  _15
REMARK    7  A    between atoms: _14  and  _17
REMARK    8  A    between atoms: _20  and  _22
REMARK    9  A    between atoms: _22  and  _23
REMARK   10  A    between atoms: _22  and  _25
REMARK   11  A    between atoms: _25  and  _26
REMARK   12  A    between atoms: _31  and  _33
REMARK   13  A    between atoms: _33  and  _34
REMARK   14  A    between atoms: _33  and  _36
REMARK   15  A    between atoms: _36  and  _37
REMARK   16  A    between atoms: _37  and  _38
REMARK   17  A    between atoms: _43  and  _45
REMARK   18  A    between atoms: _45  and  _46
REMARK   19  A    between atoms: _45  and  _48
REMARK   20  A    between atoms: _48  and  _49
REMARK   21  A    between atoms: _52  and  _54
REMARK   22  A    between atoms: _54  and  _55
REMARK   23  A    between atoms: _54  and  _57
REMARK   24  A    between atoms: _57  and  _58
REMARK   25  A    between atoms: _58  and  _59
REMARK   26  A    between atoms: _59  and  _60
REMARK   27  A    between atoms: _60  and  _61
REMARK   28  A    between atoms: _65  and  _67
REMARK   29  A    between atoms: _67  and  _68
REMARK   30  A    between atoms: _67  and  _70
REMARK   31  A    between atoms: _70  and  _71
REMARK   32  A    between atoms: _71  and  _72
REMARK   33  A    between atoms: _75  and  _77
REMARK   34  A    between atoms: _77  and  _78
REMARK   35  A    between atoms: _77  and  _80
REMARK   36  A    between atoms: _80  and  _81
REMARK   37  A    between atoms: _84  and  _86
REMARK   38  A    between atoms: _86  and  _87
REMARK   39  A    between atoms: _86  and  _89
REMARK   40  A    between atoms: _89  and  _90
REMARK   41  A    between atoms: _95  and  _96
REMARK   42  A    between atoms: _98  and  _100
REMARK   43  A    between atoms: _100  and  _101
REMARK   44  A    between atoms: _100  and  _103
REMARK   45  A    between atoms: _103  and  _104
REMARK   46  A    between atoms: _107  and  _109
REMARK   47  A    between atoms: _109  and  _110
REMARK   48  A    between atoms: _109  and  _112
REMARK   49  A    between atoms: _112  and  _113
REMARK   50  A    between atoms: _116  and  _118
REMARK   51  A    between atoms: _118  and  _119
REMARK   52  A    between atoms: _118  and  _121
REMARK   53  A    between atoms: _124  and  _126
REMARK   54  A    between atoms: _126  and  _127
REMARK   55  A    between atoms: _126  and  _129
REMARK   56  A    between atoms: _129  and  _130
REMARK   57  A    between atoms: _130  and  _131
REMARK   58  A    between atoms: _131  and  _132
REMARK   59  A    between atoms: _141  and  _143
REMARK   60  A    between atoms: _143  and  _144
REMARK   61  A    between atoms: _143  and  _146
REMARK   62  A    between atoms: _146  and  _147
REMARK   63  A    between atoms: _152  and  _154
REMARK   64  A    between atoms: _154  and  _155
REMARK   65  A    between atoms: _154  and  _157
REMARK   66  A    between atoms: _157  and  _158
REMARK   67  A    between atoms: _158  and  _159
REMARK   68  A    between atoms: _162  and  _164
REMARK   69  A    between atoms: _164  and  _165
REMARK   70  A    between atoms: _164  and  _167
REMARK   71  A    between atoms: _167  and  _168
REMARK   72  A    between atoms: _168  and  _169
REMARK   73  A    between atoms: _169  and  _170
REMARK   74  A    between atoms: _170  and  _171
REMARK   75  A    between atoms: _175  and  _177
REMARK   76  A    between atoms: _177  and  _178
REMARK   77  A    between atoms: _177  and  _180
REMARK   78  A    between atoms: _183  and  _185
REMARK   79  A    between atoms: _185  and  _186
REMARK   80  A    between atoms: _185  and  _188
REMARK   81  A    between atoms: _188  and  _189
REMARK   82  A    between atoms: _191  and  _193
REMARK   83  A    between atoms: _193  and  _194
REMARK   84  A    between atoms: _193  and  _196
REMARK   85  A    between atoms: _196  and  _197
REMARK   86  A    between atoms: _199  and  _201
REMARK   87  A    between atoms: _201  and  _202
REMARK   88  A    between atoms: _201  and  _204
REMARK   89  A    between atoms: _204  and  _205
REMARK   90  A    between atoms: _211  and  _213
REMARK   91  A    between atoms: _213  and  _214
REMARK   92  A    between atoms: _213  and  _216
REMARK   93  A    between atoms: _216  and  _217
REMARK   94  A    between atoms: _220  and  _222
REMARK   95  A    between atoms: _222  and  _223
REMARK   96  A    between atoms: _222  and  _225
REMARK   97  A    between atoms: _225  and  _226
REMARK   98  A    between atoms: _229  and  _231
REMARK   99  A    between atoms: _231  and  _232
REMARK  100  A    between atoms: _231  and  _234
REMARK  101  A    between atoms: _234  and  _235
REMARK  102  A    between atoms: _238  and  _240
REMARK  103  A    between atoms: _240  and  _241
REMARK  104  A    between atoms: _240  and  _243
REMARK  105  A    between atoms: _243  and  _244
REMARK  106  A    between atoms: _244  and  _245
REMARK  107  A    between atoms: _247  and  _249
REMARK  108  A    between atoms: _249  and  _250
REMARK  109  A    between atoms: _249  and  _252
REMARK  110  A    between atoms: _252  and  _253
REMARK  111  A    between atoms: _259  and  _261
REMARK  112  A    between atoms: _261  and  _262
REMARK  113  A    between atoms: _261  and  _264
REMARK  114  A    between atoms: _266  and  _268
REMARK  115  A    between atoms: _268  and  _269
REMARK  116  A    between atoms: _272  and  _274
REMARK  117  A    between atoms: _274  and  _275
REMARK  118  A    between atoms: _277  and  _279
REMARK  119  A    between atoms: _279  and  _280
REMARK  120  A    between atoms: _279  and  _282
REMARK  121  A    between atoms: _282  and  _283
REMARK  122  A    between atoms: _283  and  _284
REMARK  123  A    between atoms: _287  and  _289
REMARK  124  A    between atoms: _289  and  _290
REMARK  125  A    between atoms: _289  and  _292
REMARK  126  A    between atoms: _292  and  _293
REMARK  127  A    between atoms: _296  and  _298
REMARK  128  A    between atoms: _298  and  _299
REMARK  129  A    between atoms: _302  and  _304
REMARK  130  A    between atoms: _304  and  _305
REMARK  131  A    between atoms: _304  and  _307
REMARK  132  A    between atoms: _307  and  _308
REMARK  133  A    between atoms: _308  and  _431
REMARK  134  A    between atoms: _309  and  _311
REMARK  135  A    between atoms: _311  and  _312
REMARK  136  A    between atoms: _311  and  _314
REMARK  137  A    between atoms: _314  and  _315
REMARK  138  A    between atoms: _315  and  _316
REMARK  139  A    between atoms: _321  and  _323
REMARK  140  A    between atoms: _323  and  _324
REMARK  141  A    between atoms: _326  and  _328
REMARK  142  A    between atoms: _328  and  _329
REMARK  143  A    between atoms: _328  and  _331
REMARK  144  A    between atoms: _331  and  _332
REMARK  145  A    between atoms: _335  and  _337
REMARK  146  A    between atoms: _337  and  _338
REMARK  147  A    between atoms: _337  and  _340
REMARK  148  A    between atoms: _340  and  _341
REMARK  149  A    between atoms: _343  and  _345
REMARK  150  A    between atoms: _345  and  _346
REMARK  151  A    between atoms: _348  and  _350
REMARK  152  A    between atoms: _350  and  _351
REMARK  153  A    between atoms: _353  and  _355
REMARK  154  A    between atoms: _355  and  _356
REMARK  155  A    between atoms: _355  and  _358
REMARK  156  A    between atoms: _358  and  _359
REMARK  157  A    between atoms: _364  and  _366
REMARK  158  A    between atoms: _366  and  _367
REMARK  159  A    between atoms: _366  and  _369
REMARK  160  A    between atoms: _369  and  _370
REMARK  161  A    between atoms: _373  and  _375
REMARK  162  A    between atoms: _375  and  _376
REMARK  163  A    between atoms: _375  and  _378
REMARK  164  A    between atoms: _381  and  _383
REMARK  165  A    between atoms: _383  and  _384
REMARK  166  A    between atoms: _383  and  _386
REMARK  167  A    between atoms: _386  and  _387
REMARK  168  A    between atoms: _389  and  _391
REMARK  169  A    between atoms: _391  and  _392
REMARK  170  A    between atoms: _391  and  _394
REMARK  171  A    between atoms: _394  and  _395
REMARK  172  A    between atoms: _405  and  _407
REMARK  173  A    between atoms: _407  and  _408
REMARK  174  A    between atoms: _410  and  _412
REMARK  175  A    between atoms: _412  and  _413
REMARK  176  A    between atoms: _412  and  _415
REMARK  177  A    between atoms: _415  and  _416
REMARK  178  A    between atoms: _416  and  _417
REMARK  179  A    between atoms: _420  and  _422
REMARK  180  A    between atoms: _422  and  _423
REMARK  181  A    between atoms: _425  and  _427
REMARK  182  A    between atoms: _427  and  _428
REMARK  183  A    between atoms: _427  and  _430
REMARK  184  A    between atoms: _430  and  _431
REMARK  185  A    between atoms: _432  and  _434
REMARK  186  A    between atoms: _434  and  _435
REMARK  187  A    between atoms: _438  and  _440
REMARK  188  A    between atoms: _440  and  _441
REMARK  189  A    between atoms: _440  and  _443
REMARK  190  A    between atoms: _443  and  _444
REMARK  191  A    between atoms: _444  and  _445
REMARK  192  A    between atoms: _445  and  _446
REMARK  193  A    between atoms: _455  and  _457
REMARK  194  A    between atoms: _457  and  _458
REMARK  195  A    between atoms: _457  and  _460
REMARK  196  A    between atoms: _460  and  _461
REMARK  197  A    between atoms: _461  and  _462
REMARK  198  A    between atoms: _462  and  _463
REMARK  199  A    between atoms: _463  and  _464
REMARK  200  A    between atoms: _468  and  _470
REMARK  201  A    between atoms: _470  and  _471
REMARK  202  A    between atoms: _470  and  _473
REMARK  203  A    between atoms: _473  and  _474
REMARK  204  A    between atoms: _479  and  _480
REMARK  205  A    between atoms: _482  and  _484
REMARK  206  A    between atoms: _484  and  _485
REMARK  207  A    between atoms: _487  and  _489
REMARK  208  A    between atoms: _489  and  _490
REMARK  209  A    between atoms: _489  and  _492
REMARK  210  A    between atoms: _492  and  _493
REMARK  211  A    between atoms: _496  and  _498
REMARK  212  A    between atoms: _498  and  _499
REMARK  213  A    between atoms: _498  and  _501
REMARK  214  A    between atoms: _501  and  _502
REMARK  215  A    between atoms: _507  and  _508
REMARK  216  A    between atoms: _510  and  _512
REMARK  217  A    between atoms: _512  and  _513
REMARK  218  A    between atoms: _512  and  _515
REMARK  219  A    between atoms: _515  and  _516
REMARK                            x       y       z     vdW  Elec       q    Type
REMARK                         _______ _______ _______ _____ _____    ______ ____
ROOT
ATOM      1  O   HOH     1      -1.224   4.353  31.386  0.00  0.00    +0.000 OA
ENDROOT
TORSDOF 0
REMARK  Name = ../refined-set-2016/2vvu/2vvu_pocket.pdb
REMARK  219 active torsions:
REMARK  status: ('A' for Active; 'I' for Inactive)
REMARK    1  A    between atoms: _1  and  _5
REMARK    2  A    between atoms: _5  and  _6
REMARK    3  A    between atoms: _5  and  _8
REMARK    4  A    between atoms: _8  and  _9
REMARK    5  A    between atoms: _12  and  _14
REMARK    6  A    between atoms: _14  and  _15
REMARK    7  A    between atoms: _14  and  _17
REMARK    8  A    between atoms: _20  and  _22
REMARK    9  A    between atoms: _22  and  _23
REMARK   10  A    between atoms: _22  and  _25
REMARK   11  A    between atoms: _25  and  _26
REMARK   12  A    between atoms: _31  and  _33
REMARK   13  A    between atoms: _33  and  _34
REMARK   14  A    between atoms: _33  and  _36
REMARK   15  A    between atoms: _36  and  _37
REMARK   16  A    between atoms: _37  and  _38
REMARK   17  A    between atoms: _43  and  _45
REMARK   18  A    between atoms: _45  and  _46
REMARK   19  A    between atoms: _45  and  _48
REMARK   20  A    between atoms: _48  and  _49
REMARK   21  A    between atoms: _52  and  _54
REMARK   22  A    between atoms: _54  and  _55
REMARK   23  A    between atoms: _54  and  _57
REMARK   24  A    between atoms: _57  and  _58
REMARK   25  A    between atoms: _58  and  _59
REMARK   26  A    between atoms: _59  and  _60
REMARK   27  A    between atoms: _60  and  _61
REMARK   28  A    between atoms: _65  and  _67
REMARK   29  A    between atoms: _67  and  _68
REMARK   30  A    between atoms: _67  and  _70
REMARK   31  A    between atoms: _70  and  _71
REMARK   32  A    between atoms: _71  and  _72
REMARK   33  A    between atoms: _75  and  _77
REMARK   34  A    between atoms: _77  and  _78
REMARK   35  A    between atoms: _77  and  _80
REMARK   36  A    between atoms: _80  and  _81
REMARK   37  A    between atoms: _84  and  _86
REMARK   38  A    between atoms: _86  and  _87
REMARK   39  A    between atoms: _86  and  _89
REMARK   40  A    between atoms: _89  and  _90
REMARK   41  A    between atoms: _95  and  _96
REMARK   42  A    between atoms: _98  and  _100
REMARK   43  A    between atoms: _100  and  _101
REMARK   44  A    between atoms: _100  and  _103
REMARK   45  A    between atoms: _103  and  _104
REMARK   46  A    between atoms: _107  and  _109
REMARK   47  A    between atoms: _109  and  _110
REMARK   48  A    between atoms: _109  and  _112
REMARK   49  A    between atoms: _112  and  _113
REMARK   50  A    between atoms: _116  and  _118
REMARK   51  A    between atoms: _118  and  _119
REMARK   52  A    between atoms: _118  and  _121
REMARK   53  A    between atoms: _124  and  _126
REMARK   54  A    between atoms: _126  and  _127
REMARK   55  A    between atoms: _126  and  _129
REMARK   56  A    between atoms: _129  and  _130
REMARK   57  A    between atoms: _130  and  _131
REMARK   58  A    between atoms: _131  and  _132
REMARK   59  A    between atoms: _141  and  _143
REMARK   60  A    between atoms: _143  and  _144
REMARK   61  A    between atoms: _143  and  _146
REMARK   62  A    between atoms: _146  and  _147
REMARK   63  A    between atoms: _152  and  _154
REMARK   64  A    between atoms: _154  and  _155
REMARK   65  A    between atoms: _154  and  _157
REMARK   66  A    between atoms: _157  and  _158
REMARK   67  A    between atoms: _158  and  _159
REMARK   68  A    between atoms: _162  and  _164
REMARK   69  A    between atoms: _164  and  _165
REMARK   70  A    between atoms: _164  and  _167
REMARK   71  A    between atoms: _167  and  _168
REMARK   72  A    between atoms: _168  and  _169
REMARK   73  A    between atoms: _169  and  _170
REMARK   74  A    between atoms: _170  and  _171
REMARK   75  A    between atoms: _175  and  _177
REMARK   76  A    between atoms: _177  and  _178
REMARK   77  A    between atoms: _177  and  _180
REMARK   78  A    between atoms: _183  and  _185
REMARK   79  A    between atoms: _185  and  _186
REMARK   80  A    between atoms: _185  and  _188
REMARK   81  A    between atoms: _188  and  _189
REMARK   82  A    between atoms: _191  and  _193
REMARK   83  A    between atoms: _193  and  _194
REMARK   84  A    between atoms: _193  and  _196
REMARK   85  A    between atoms: _196  and  _197
REMARK   86  A    between atoms: _199  and  _201
REMARK   87  A    between atoms: _201  and  _202
REMARK   88  A    between atoms: _201  and  _204
REMARK   89  A    between atoms: _204  and  _205
REMARK   90  A    between atoms: _211  and  _213
REMARK   91  A    between atoms: _213  and  _214
REMARK   92  A    between atoms: _213  and  _216
REMARK   93  A    between atoms: _216  and  _217
REMARK   94  A    between atoms: _220  and  _222
REMARK   95  A    between atoms: _222  and  _223
REMARK   96  A    between atoms: _222  and  _225
REMARK   97  A    between atoms: _225  and  _226
REMARK   98  A    between atoms: _229  and  _231
REMARK   99  A    between atoms: _231  and  _232
REMARK  100  A    between atoms: _231  and  _234
REMARK  101  A    between atoms: _234  and  _235
REMARK  102  A    between atoms: _238  and  _240
REMARK  103  A    between atoms: _240  and  _241
REMARK  104  A    between atoms: _240  and  _243
REMARK  105  A    between atoms: _243  and  _244
REMARK  106  A    between atoms: _244  and  _245
REMARK  107  A    between atoms: _247  and  _249
REMARK  108  A    between atoms: _249  and  _250
REMARK  109  A    between atoms: _249  and  _252
REMARK  110  A    between atoms: _252  and  _253
REMARK  111  A    between atoms: _259  and  _261
REMARK  112  A    between atoms: _261  and  _262
REMARK  113  A    between atoms: _261  and  _264
REMARK  114  A    between atoms: _266  and  _268
REMARK  115  A    between atoms: _268  and  _269
REMARK  116  A    between atoms: _272  and  _274
REMARK  117  A    between atoms: _274  and  _275
REMARK  118  A    between atoms: _277  and  _279
REMARK  119  A    between atoms: _279  and  _280
REMARK  120  A    between atoms: _279  and  _282
REMARK  121  A    between atoms: _282  and  _283
REMARK  122  A    between atoms: _283  and  _284
REMARK  123  A    between atoms: _287  and  _289
REMARK  124  A    between atoms: _289  and  _290
REMARK  125  A    between atoms: _289  and  _292
REMARK  126  A    between atoms: _292  and  _293
REMARK  127  A    between atoms: _296  and  _298
REMARK  128  A    between atoms: _298  and  _299
REMARK  129  A    between atoms: _302  and  _304
REMARK  130  A    between atoms: _304  and  _305
REMARK  131  A    between atoms: _304  and  _307
REMARK  132  A    between atoms: _307  and  _308
REMARK  133  A    between atoms: _308  and  _431
REMARK  134  A    between atoms: _309  and  _311
REMARK  135  A    between atoms: _311  and  _312
REMARK  136  A    between atoms: _311  and  _314
REMARK  137  A    between atoms: _314  and  _315
REMARK  138  A    between atoms: _315  and  _316
REMARK  139  A    between atoms: _321  and  _323
REMARK  140  A    between atoms: _323  and  _324
REMARK  141  A    between atoms: _326  and  _328
REMARK  142  A    between atoms: _328  and  _329
REMARK  143  A    between atoms: _328  and  _331
REMARK  144  A    between atoms: _331  and  _332
REMARK  145  A    between atoms: _335  and  _337
REMARK  146  A    between atoms: _337  and  _338
REMARK  147  A    between atoms: _337  and  _340
REMARK  148  A    between atoms: _340  and  _341
REMARK  149  A    between atoms: _343  and  _345
REMARK  150  A    between atoms: _345  and  _346
REMARK  151  A    between atoms: _348  and  _350
REMARK  152  A    between atoms: _350  and  _351
REMARK  153  A    between atoms: _353  and  _355
REMARK  154  A    between atoms: _355  and  _356
REMARK  155  A    between atoms: _355  and  _358
REMARK  156  A    between atoms: _358  and  _359
REMARK  157  A    between atoms: _364  and  _366
REMARK  158  A    between atoms: _366  and  _367
REMARK  159  A    between atoms: _366  and  _369
REMARK  160  A    between atoms: _369  and  _370
REMARK  161  A    between atoms: _373  and  _375
REMARK  162  A    between atoms: _375  and  _376
REMARK  163  A    between atoms: _375  and  _378
REMARK  164  A    between atoms: _381  and  _383
REMARK  165  A    between atoms: _383  and  _384
REMARK  166  A    between atoms: _383  and  _386
REMARK  167  A    between atoms: _386  and  _387
REMARK  168  A    between atoms: _389  and  _391
REMARK  169  A    between atoms: _391  and  _392
REMARK  170  A    between atoms: _391  and  _394
REMARK  171  A    between atoms: _394  and  _395
REMARK  172  A    between atoms: _405  and  _407
REMARK  173  A    between atoms: _407  and  _408
REMARK  174  A    between atoms: _410  and  _412
REMARK  175  A    between atoms: _412  and  _413
REMARK  176  A    between atoms: _412  and  _415
REMARK  177  A    between atoms: _415  and  _416
REMARK  178  A    between atoms: _416  and  _417
REMARK  179  A    between atoms: _420  and  _422
REMARK  180  A    between atoms: _422  and  _423
REMARK  181  A    between atoms: _425  and  _427
REMARK  182  A    between atoms: _427  and  _428
REMARK  183  A    between atoms: _427  and  _430
REMARK  184  A    between atoms: _430  and  _431
REMARK  185  A    between atoms: _432  and  _434
REMARK  186  A    between atoms: _434  and  _435
REMARK  187  A    between atoms: _438  and  _440
REMARK  188  A    between atoms: _440  and  _441
REMARK  189  A    between atoms: _440  and  _443
REMARK  190  A    between atoms: _443  and  _444
REMARK  191  A    between atoms: _444  and  _445
REMARK  192  A    between atoms: _445  and  _446
REMARK  193  A    between atoms: _455  and  _457
REMARK  194  A    between atoms: _457  and  _458
REMARK  195  A    between atoms: _457  and  _460
REMARK  196  A    between atoms: _460  and  _461
REMARK  197  A    between atoms: _461  and  _462
REMARK  198  A    between atoms: _462  and  _463
REMARK  199  A    between atoms: _463  and  _464
REMARK  200  A    between atoms: _468  and  _470
REMARK  201  A    between atoms: _470  and  _471
REMARK  202  A    between atoms: _470  and  _473
REMARK  203  A    between atoms: _473  and  _474
REMARK  204  A    between atoms: _479  and  _480
REMARK  205  A    between atoms: _482  and  _484
REMARK  206  A    between atoms: _484  and  _485
REMARK  207  A    between atoms: _487  and  _489
REMARK  208  A    between atoms: _489  and  _490
REMARK  209  A    between atoms: _489  and  _492
REMARK  210  A    between atoms: _492  and  _493
REMARK  211  A    between atoms: _496  and  _498
REMARK  212  A    between atoms: _498  and  _499
REMARK  213  A    between atoms: _498  and  _501
REMARK  214  A    between atoms: _501  and  _502
REMARK  215  A    between atoms: _507  and  _508
REMARK  216  A    between atoms: _510  and  _512
REMARK  217  A    between atoms: _512  and  _513
REMARK  218  A    between atoms: _512  and  _515
REMARK  219  A    between atoms: _515  and  _516
REMARK                            x       y       z     vdW  Elec       q    Type
REMARK                         _______ _______ _______ _____ _____    ______ ____
ROOT
ATOM      1  O   HOH     1      -5.611   7.289  28.797  0.00  0.00    +0.000 OA
ENDROOT
TORSDOF 0
REMARK  Name = ../refined-set-2016/2vvu/2vvu_pocket.pdb
REMARK  219 active torsions:
REMARK  status: ('A' for Active; 'I' for Inactive)
REMARK    1  A    between atoms: _1  and  _5
REMARK    2  A    between atoms: _5  and  _6
REMARK    3  A    between atoms: _5  and  _8
REMARK    4  A    between atoms: _8  and  _9
REMARK    5  A    between atoms: _12  and  _14
REMARK    6  A    between atoms: _14  and  _15
REMARK    7  A    between atoms: _14  and  _17
REMARK    8  A    between atoms: _20  and  _22
REMARK    9  A    between atoms: _22  and  _23
REMARK   10  A    between atoms: _22  and  _25
REMARK   11  A    between atoms: _25  and  _26
REMARK   12  A    between atoms: _31  and  _33
REMARK   13  A    between atoms: _33  and  _34
REMARK   14  A    between atoms: _33  and  _36
REMARK   15  A    between atoms: _36  and  _37
REMARK   16  A    between atoms: _37  and  _38
REMARK   17  A    between atoms: _43  and  _45
REMARK   18  A    between atoms: _45  and  _46
REMARK   19  A    between atoms: _45  and  _48
REMARK   20  A    between atoms: _48  and  _49
REMARK   21  A    between atoms: _52  and  _54
REMARK   22  A    between atoms: _54  and  _55
REMARK   23  A    between atoms: _54  and  _57
REMARK   24  A    between atoms: _57  and  _58
REMARK   25  A    between atoms: _58  and  _59
REMARK   26  A    between atoms: _59  and  _60
REMARK   27  A    between atoms: _60  and  _61
REMARK   28  A    between atoms: _65  and  _67
REMARK   29  A    between atoms: _67  and  _68
REMARK   30  A    between atoms: _67  and  _70
REMARK   31  A    between atoms: _70  and  _71
REMARK   32  A    between atoms: _71  and  _72
REMARK   33  A    between atoms: _75  and  _77
REMARK   34  A    between atoms: _77  and  _78
REMARK   35  A    between atoms: _77  and  _80
REMARK   36  A    between atoms: _80  and  _81
REMARK   37  A    between atoms: _84  and  _86
REMARK   38  A    between atoms: _86  and  _87
REMARK   39  A    between atoms: _86  and  _89
REMARK   40  A    between atoms: _89  and  _90
REMARK   41  A    between atoms: _95  and  _96
REMARK   42  A    between atoms: _98  and  _100
REMARK   43  A    between atoms: _100  and  _101
REMARK   44  A    between atoms: _100  and  _103
REMARK   45  A    between atoms: _103  and  _104
REMARK   46  A    between atoms: _107  and  _109
REMARK   47  A    between atoms: _109  and  _110
REMARK   48  A    between atoms: _109  and  _112
REMARK   49  A    between atoms: _112  and  _113
REMARK   50  A    between atoms: _116  and  _118
REMARK   51  A    between atoms: _118  and  _119
REMARK   52  A    between atoms: _118  and  _121
REMARK   53  A    between atoms: _124  and  _126
REMARK   54  A    between atoms: _126  and  _127
REMARK   55  A    between atoms: _126  and  _129
REMARK   56  A    between atoms: _129  and  _130
REMARK   57  A    between atoms: _130  and  _131
REMARK   58  A    between atoms: _131  and  _132
REMARK   59  A    between atoms: _141  and  _143
REMARK   60  A    between atoms: _143  and  _144
REMARK   61  A    between atoms: _143  and  _146
REMARK   62  A    between atoms: _146  and  _147
REMARK   63  A    between atoms: _152  and  _154
REMARK   64  A    between atoms: _154  and  _155
REMARK   65  A    between atoms: _154  and  _157
REMARK   66  A    between atoms: _157  and  _158
REMARK   67  A    between atoms: _158  and  _159
REMARK   68  A    between atoms: _162  and  _164
REMARK   69  A    between atoms: _164  and  _165
REMARK   70  A    between atoms: _164  and  _167
REMARK   71  A    between atoms: _167  and  _168
REMARK   72  A    between atoms: _168  and  _169
REMARK   73  A    between atoms: _169  and  _170
REMARK   74  A    between atoms: _170  and  _171
REMARK   75  A    between atoms: _175  and  _177
REMARK   76  A    between atoms: _177  and  _178
REMARK   77  A    between atoms: _177  and  _180
REMARK   78  A    between atoms: _183  and  _185
REMARK   79  A    between atoms: _185  and  _186
REMARK   80  A    between atoms: _185  and  _188
REMARK   81  A    between atoms: _188  and  _189
REMARK   82  A    between atoms: _191  and  _193
REMARK   83  A    between atoms: _193  and  _194
REMARK   84  A    between atoms: _193  and  _196
REMARK   85  A    between atoms: _196  and  _197
REMARK   86  A    between atoms: _199  and  _201
REMARK   87  A    between atoms: _201  and  _202
REMARK   88  A    between atoms: _201  and  _204
REMARK   89  A    between atoms: _204  and  _205
REMARK   90  A    between atoms: _211  and  _213
REMARK   91  A    between atoms: _213  and  _214
REMARK   92  A    between atoms: _213  and  _216
REMARK   93  A    between atoms: _216  and  _217
REMARK   94  A    between atoms: _220  and  _222
REMARK   95  A    between atoms: _222  and  _223
REMARK   96  A    between atoms: _222  and  _225
REMARK   97  A    between atoms: _225  and  _226
REMARK   98  A    between atoms: _229  and  _231
REMARK   99  A    between atoms: _231  and  _232
REMARK  100  A    between atoms: _231  and  _234
REMARK  101  A    between atoms: _234  and  _235
REMARK  102  A    between atoms: _238  and  _240
REMARK  103  A    between atoms: _240  and  _241
REMARK  104  A    between atoms: _240  and  _243
REMARK  105  A    between atoms: _243  and  _244
REMARK  106  A    between atoms: _244  and  _245
REMARK  107  A    between atoms: _247  and  _249
REMARK  108  A    between atoms: _249  and  _250
REMARK  109  A    between atoms: _249  and  _252
REMARK  110  A    between atoms: _252  and  _253
REMARK  111  A    between atoms: _259  and  _261
REMARK  112  A    between atoms: _261  and  _262
REMARK  113  A    between atoms: _261  and  _264
REMARK  114  A    between atoms: _266  and  _268
REMARK  115  A    between atoms: _268  and  _269
REMARK  116  A    between atoms: _272  and  _274
REMARK  117  A    between atoms: _274  and  _275
REMARK  118  A    between atoms: _277  and  _279
REMARK  119  A    between atoms: _279  and  _280
REMARK  120  A    between atoms: _279  and  _282
REMARK  121  A    between atoms: _282  and  _283
REMARK  122  A    between atoms: _283  and  _284
REMARK  123  A    between atoms: _287  and  _289
REMARK  124  A    between atoms: _289  and  _290
REMARK  125  A    between atoms: _289  and  _292
REMARK  126  A    between atoms: _292  and  _293
REMARK  127  A    between atoms: _296  and  _298
REMARK  128  A    between atoms: _298  and  _299
REMARK  129  A    between atoms: _302  and  _304
REMARK  130  A    between atoms: _304  and  _305
REMARK  131  A    between atoms: _304  and  _307
REMARK  132  A    between atoms: _307  and  _308
REMARK  133  A    between atoms: _308  and  _431
REMARK  134  A    between atoms: _309  and  _311
REMARK  135  A    between atoms: _311  and  _312
REMARK  136  A    between atoms: _311  and  _314
REMARK  137  A    between atoms: _314  and  _315
REMARK  138  A    between atoms: _315  and  _316
REMARK  139  A    between atoms: _321  and  _323
REMARK  140  A    between atoms: _323  and  _324
REMARK  141  A    between atoms: _326  and  _328
REMARK  142  A    between atoms: _328  and  _329
REMARK  143  A    between atoms: _328  and  _331
REMARK  144  A    between atoms: _331  and  _332
REMARK  145  A    between atoms: _335  and  _337
REMARK  146  A    between atoms: _337  and  _338
REMARK  147  A    between atoms: _337  and  _340
REMARK  148  A    between atoms: _340  and  _341
REMARK  149  A    between atoms: _343  and  _345
REMARK  150  A    between atoms: _345  and  _346
REMARK  151  A    between atoms: _348  and  _350
REMARK  152  A    between atoms: _350  and  _351
REMARK  153  A    between atoms: _353  and  _355
REMARK  154  A    between atoms: _355  and  _356
REMARK  155  A    between atoms: _355  and  _358
REMARK  156  A    between atoms: _358  and  _359
REMARK  157  A    between atoms: _364  and  _366
REMARK  158  A    between atoms: _366  and  _367
REMARK  159  A    between atoms: _366  and  _369
REMARK  160  A    between atoms: _369  and  _370
REMARK  161  A    between atoms: _373  and  _375
REMARK  162  A    between atoms: _375  and  _376
REMARK  163  A    between atoms: _375  and  _378
REMARK  164  A    between atoms: _381  and  _383
REMARK  165  A    between atoms: _383  and  _384
REMARK  166  A    between atoms: _383  and  _386
REMARK  167  A    between atoms: _386  and  _387
REMARK  168  A    between atoms: _389  and  _391
REMARK  169  A    between atoms: _391  and  _392
REMARK  170  A    between atoms: _391  and  _394
REMARK  171  A    between atoms: _394  and  _395
REMARK  172  A    between atoms: _405  and  _407
REMARK  173  A    between atoms: _407  and  _408
REMARK  174  A    between atoms: _410  and  _412
REMARK  175  A    between atoms: _412  and  _413
REMARK  176  A    between atoms: _412  and  _415
REMARK  177  A    between atoms: _415  and  _416
REMARK  178  A    between atoms: _416  and  _417
REMARK  179  A    between atoms: _420  and  _422
REMARK  180  A    between atoms: _422  and  _423
REMARK  181  A    between atoms: _425  and  _427
REMARK  182  A    between atoms: _427  and  _428
REMARK  183  A    between atoms: _427  and  _430
REMARK  184  A    between atoms: _430  and  _431
REMARK  185  A    between atoms: _432  and  _434
REMARK  186  A    between atoms: _434  and  _435
REMARK  187  A    between atoms: _438  and  _440
REMARK  188  A    between atoms: _440  and  _441
REMARK  189  A    between atoms: _440  and  _443
REMARK  190  A    between atoms: _443  and  _444
REMARK  191  A    between atoms: _444  and  _445
REMARK  192  A    between atoms: _445  and  _446
REMARK  193  A    between atoms: _455  and  _457
REMARK  194  A    between atoms: _457  and  _458
REMARK  195  A    between atoms: _457  and  _460
REMARK  196  A    between atoms: _460  and  _461
REMARK  197  A    between atoms: _461  and  _462
REMARK  198  A    between atoms: _462  and  _463
REMARK  199  A    between atoms: _463  and  _464
REMARK  200  A    between atoms: _468  and  _470
REMARK  201  A    between atoms: _470  and  _471
REMARK  202  A    between atoms: _470  and  _473
REMARK  203  A    between atoms: _473  and  _474
REMARK  204  A    between atoms: _479  and  _480
REMARK  205  A    between atoms: _482  and  _484
REMARK  206  A    between atoms: _484  and  _485
REMARK  207  A    between atoms: _487  and  _489
REMARK  208  A    between atoms: _489  and  _490
REMARK  209  A    between atoms: _489  and  _492
REMARK  210  A    between atoms: _492  and  _493
REMARK  211  A    between atoms: _496  and  _498
REMARK  212  A    between atoms: _498  and  _499
REMARK  213  A    between atoms: _498  and  _501
REMARK  214  A    between atoms: _501  and  _502
REMARK  215  A    between atoms: _507  and  _508
REMARK  216  A    between atoms: _510  and  _512
REMARK  217  A    between atoms: _512  and  _513
REMARK  218  A    between atoms: _512  and  _515
REMARK  219  A    between atoms: _515  and  _516
REMARK                            x       y       z     vdW  Elec       q    Type
REMARK                         _______ _______ _______ _____ _____    ______ ____
ROOT
ATOM      1  O   HOH     1      -0.748   9.561  21.927  0.00  0.00    +0.000 OA
ENDROOT
TORSDOF 0
REMARK  Name = ../refined-set-2016/2vvu/2vvu_pocket.pdb
REMARK  219 active torsions:
REMARK  status: ('A' for Active; 'I' for Inactive)
REMARK    1  A    between atoms: _1  and  _5
REMARK    2  A    between atoms: _5  and  _6
REMARK    3  A    between atoms: _5  and  _8
REMARK    4  A    between atoms: _8  and  _9
REMARK    5  A    between atoms: _12  and  _14
REMARK    6  A    between atoms: _14  and  _15
REMARK    7  A    between atoms: _14  and  _17
REMARK    8  A    between atoms: _20  and  _22
REMARK    9  A    between atoms: _22  and  _23
REMARK   10  A    between atoms: _22  and  _25
REMARK   11  A    between atoms: _25  and  _26
REMARK   12  A    between atoms: _31  and  _33
REMARK   13  A    between atoms: _33  and  _34
REMARK   14  A    between atoms: _33  and  _36
REMARK   15  A    between atoms: _36  and  _37
REMARK   16  A    between atoms: _37  and  _38
REMARK   17  A    between atoms: _43  and  _45
REMARK   18  A    between atoms: _45  and  _46
REMARK   19  A    between atoms: _45  and  _48
REMARK   20  A    between atoms: _48  and  _49
REMARK   21  A    between atoms: _52  and  _54
REMARK   22  A    between atoms: _54  and  _55
REMARK   23  A    between atoms: _54  and  _57
REMARK   24  A    between atoms: _57  and  _58
REMARK   25  A    between atoms: _58  and  _59
REMARK   26  A    between atoms: _59  and  _60
REMARK   27  A    between atoms: _60  and  _61
REMARK   28  A    between atoms: _65  and  _67
REMARK   29  A    between atoms: _67  and  _68
REMARK   30  A    between atoms: _67  and  _70
REMARK   31  A    between atoms: _70  and  _71
REMARK   32  A    between atoms: _71  and  _72
REMARK   33  A    between atoms: _75  and  _77
REMARK   34  A    between atoms: _77  and  _78
REMARK   35  A    between atoms: _77  and  _80
REMARK   36  A    between atoms: _80  and  _81
REMARK   37  A    between atoms: _84  and  _86
REMARK   38  A    between atoms: _86  and  _87
REMARK   39  A    between atoms: _86  and  _89
REMARK   40  A    between atoms: _89  and  _90
REMARK   41  A    between atoms: _95  and  _96
REMARK   42  A    between atoms: _98  and  _100
REMARK   43  A    between atoms: _100  and  _101
REMARK   44  A    between atoms: _100  and  _103
REMARK   45  A    between atoms: _103  and  _104
REMARK   46  A    between atoms: _107  and  _109
REMARK   47  A    between atoms: _109  and  _110
REMARK   48  A    between atoms: _109  and  _112
REMARK   49  A    between atoms: _112  and  _113
REMARK   50  A    between atoms: _116  and  _118
REMARK   51  A    between atoms: _118  and  _119
REMARK   52  A    between atoms: _118  and  _121
REMARK   53  A    between atoms: _124  and  _126
REMARK   54  A    between atoms: _126  and  _127
REMARK   55  A    between atoms: _126  and  _129
REMARK   56  A    between atoms: _129  and  _130
REMARK   57  A    between atoms: _130  and  _131
REMARK   58  A    between atoms: _131  and  _132
REMARK   59  A    between atoms: _141  and  _143
REMARK   60  A    between atoms: _143  and  _144
REMARK   61  A    between atoms: _143  and  _146
REMARK   62  A    between atoms: _146  and  _147
REMARK   63  A    between atoms: _152  and  _154
REMARK   64  A    between atoms: _154  and  _155
REMARK   65  A    between atoms: _154  and  _157
REMARK   66  A    between atoms: _157  and  _158
REMARK   67  A    between atoms: _158  and  _159
REMARK   68  A    between atoms: _162  and  _164
REMARK   69  A    between atoms: _164  and  _165
REMARK   70  A    between atoms: _164  and  _167
REMARK   71  A    between atoms: _167  and  _168
REMARK   72  A    between atoms: _168  and  _169
REMARK   73  A    between atoms: _169  and  _170
REMARK   74  A    between atoms: _170  and  _171
REMARK   75  A    between atoms: _175  and  _177
REMARK   76  A    between atoms: _177  and  _178
REMARK   77  A    between atoms: _177  and  _180
REMARK   78  A    between atoms: _183  and  _185
REMARK   79  A    between atoms: _185  and  _186
REMARK   80  A    between atoms: _185  and  _188
REMARK   81  A    between atoms: _188  and  _189
REMARK   82  A    between atoms: _191  and  _193
REMARK   83  A    between atoms: _193  and  _194
REMARK   84  A    between atoms: _193  and  _196
REMARK   85  A    between atoms: _196  and  _197
REMARK   86  A    between atoms: _199  and  _201
REMARK   87  A    between atoms: _201  and  _202
REMARK   88  A    between atoms: _201  and  _204
REMARK   89  A    between atoms: _204  and  _205
REMARK   90  A    between atoms: _211  and  _213
REMARK   91  A    between atoms: _213  and  _214
REMARK   92  A    between atoms: _213  and  _216
REMARK   93  A    between atoms: _216  and  _217
REMARK   94  A    between atoms: _220  and  _222
REMARK   95  A    between atoms: _222  and  _223
REMARK   96  A    between atoms: _222  and  _225
REMARK   97  A    between atoms: _225  and  _226
REMARK   98  A    between atoms: _229  and  _231
REMARK   99  A    between atoms: _231  and  _232
REMARK  100  A    between atoms: _231  and  _234
REMARK  101  A    between atoms: _234  and  _235
REMARK  102  A    between atoms: _238  and  _240
REMARK  103  A    between atoms: _240  and  _241
REMARK  104  A    between atoms: _240  and  _243
REMARK  105  A    between atoms: _243  and  _244
REMARK  106  A    between atoms: _244  and  _245
REMARK  107  A    between atoms: _247  and  _249
REMARK  108  A    between atoms: _249  and  _250
REMARK  109  A    between atoms: _249  and  _252
REMARK  110  A    between atoms: _252  and  _253
REMARK  111  A    between atoms: _259  and  _261
REMARK  112  A    between atoms: _261  and  _262
REMARK  113  A    between atoms: _261  and  _264
REMARK  114  A    between atoms: _266  and  _268
REMARK  115  A    between atoms: _268  and  _269
REMARK  116  A    between atoms: _272  and  _274
REMARK  117  A    between atoms: _274  and  _275
REMARK  118  A    between atoms: _277  and  _279
REMARK  119  A    between atoms: _279  and  _280
REMARK  120  A    between atoms: _279  and  _282
REMARK  121  A    between atoms: _282  and  _283
REMARK  122  A    between atoms: _283  and  _284
REMARK  123  A    between atoms: _287  and  _289
REMARK  124  A    between atoms: _289  and  _290
REMARK  125  A    between atoms: _289  and  _292
REMARK  126  A    between atoms: _292  and  _293
REMARK  127  A    between atoms: _296  and  _298
REMARK  128  A    between atoms: _298  and  _299
REMARK  129  A    between atoms: _302  and  _304
REMARK  130  A    between atoms: _304  and  _305
REMARK  131  A    between atoms: _304  and  _307
REMARK  132  A    between atoms: _307  and  _308
REMARK  133  A    between atoms: _308  and  _431
REMARK  134  A    between atoms: _309  and  _311
REMARK  135  A    between atoms: _311  and  _312
REMARK  136  A    between atoms: _311  and  _314
REMARK  137  A    between atoms: _314  and  _315
REMARK  138  A    between atoms: _315  and  _316
REMARK  139  A    between atoms: _321  and  _323
REMARK  140  A    between atoms: _323  and  _324
REMARK  141  A    between atoms: _326  and  _328
REMARK  142  A    between atoms: _328  and  _329
REMARK  143  A    between atoms: _328  and  _331
REMARK  144  A    between atoms: _331  and  _332
REMARK  145  A    between atoms: _335  and  _337
REMARK  146  A    between atoms: _337  and  _338
REMARK  147  A    between atoms: _337  and  _340
REMARK  148  A    between atoms: _340  and  _341
REMARK  149  A    between atoms: _343  and  _345
REMARK  150  A    between atoms: _345  and  _346
REMARK  151  A    between atoms: _348  and  _350
REMARK  152  A    between atoms: _350  and  _351
REMARK  153  A    between atoms: _353  and  _355
REMARK  154  A    between atoms: _355  and  _356
REMARK  155  A    between atoms: _355  and  _358
REMARK  156  A    between atoms: _358  and  _359
REMARK  157  A    between atoms: _364  and  _366
REMARK  158  A    between atoms: _366  and  _367
REMARK  159  A    between atoms: _366  and  _369
REMARK  160  A    between atoms: _369  and  _370
REMARK  161  A    between atoms: _373  and  _375
REMARK  162  A    between atoms: _375  and  _376
REMARK  163  A    between atoms: _375  and  _378
REMARK  164  A    between atoms: _381  and  _383
REMARK  165  A    between atoms: _383  and  _384
REMARK  166  A    between atoms: _383  and  _386
REMARK  167  A    between atoms: _386  and  _387
REMARK  168  A    between atoms: _389  and  _391
REMARK  169  A    between atoms: _391  and  _392
REMARK  170  A    between atoms: _391  and  _394
REMARK  171  A    between atoms: _394  and  _395
REMARK  172  A    between atoms: _405  and  _407
REMARK  173  A    between atoms: _407  and  _408
REMARK  174  A    between atoms: _410  and  _412
REMARK  175  A    between atoms: _412  and  _413
REMARK  176  A    between atoms: _412  and  _415
REMARK  177  A    between atoms: _415  and  _416
REMARK  178  A    between atoms: _416  and  _417
REMARK  179  A    between atoms: _420  and  _422
REMARK  180  A    between atoms: _422  and  _423
REMARK  181  A    between atoms: _425  and  _427
REMARK  182  A    between atoms: _427  and  _428
REMARK  183  A    between atoms: _427  and  _430
REMARK  184  A    between atoms: _430  and  _431
REMARK  185  A    between atoms: _432  and  _434
REMARK  186  A    between atoms: _434  and  _435
REMARK  187  A    between atoms: _438  and  _440
REMARK  188  A    between atoms: _440  and  _441
REMARK  189  A    between atoms: _440  and  _443
REMARK  190  A    between atoms: _443  and  _444
REMARK  191  A    between atoms: _444  and  _445
REMARK  192  A    between atoms: _445  and  _446
REMARK  193  A    between atoms: _455  and  _457
REMARK  194  A    between atoms: _457  and  _458
REMARK  195  A    between atoms: _457  and  _460
REMARK  196  A    between atoms: _460  and  _461
REMARK  197  A    between atoms: _461  and  _462
REMARK  198  A    between atoms: _462  and  _463
REMARK  199  A    between atoms: _463  and  _464
REMARK  200  A    between atoms: _468  and  _470
REMARK  201  A    between atoms: _470  and  _471
REMARK  202  A    between atoms: _470  and  _473
REMARK  203  A    between atoms: _473  and  _474
REMARK  204  A    between atoms: _479  and  _480
REMARK  205  A    between atoms: _482  and  _484
REMARK  206  A    between atoms: _484  and  _485
REMARK  207  A    between atoms: _487  and  _489
REMARK  208  A    between atoms: _489  and  _490
REMARK  209  A    between atoms: _489  and  _492
REMARK  210  A    between atoms: _492  and  _493
REMARK  211  A    between atoms: _496  and  _498
REMARK  212  A    between atoms: _498  and  _499
REMARK  213  A    between atoms: _498  and  _501
REMARK  214  A    between atoms: _501  and  _502
REMARK  215  A    between atoms: _507  and  _508
REMARK  216  A    between atoms: _510  and  _512
REMARK  217  A    between atoms: _512  and  _513
REMARK  218  A    between atoms: _512  and  _515
REMARK  219  A    between atoms: _515  and  _516
REMARK                            x       y       z     vdW  Elec       q    Type
REMARK                         _______ _______ _______ _____ _____    ______ ____
ROOT
ATOM      1  O   HOH     1      -7.888   8.808  29.471  0.00  0.00    +0.000 OA
ENDROOT
TORSDOF 0
REMARK  Name = ../refined-set-2016/2vvu/2vvu_pocket.pdb
REMARK  219 active torsions:
REMARK  status: ('A' for Active; 'I' for Inactive)
REMARK    1  A    between atoms: _1  and  _5
REMARK    2  A    between atoms: _5  and  _6
REMARK    3  A    between atoms: _5  and  _8
REMARK    4  A    between atoms: _8  and  _9
REMARK    5  A    between atoms: _12  and  _14
REMARK    6  A    between atoms: _14  and  _15
REMARK    7  A    between atoms: _14  and  _17
REMARK    8  A    between atoms: _20  and  _22
REMARK    9  A    between atoms: _22  and  _23
REMARK   10  A    between atoms: _22  and  _25
REMARK   11  A    between atoms: _25  and  _26
REMARK   12  A    between atoms: _31  and  _33
REMARK   13  A    between atoms: _33  and  _34
REMARK   14  A    between atoms: _33  and  _36
REMARK   15  A    between atoms: _36  and  _37
REMARK   16  A    between atoms: _37  and  _38
REMARK   17  A    between atoms: _43  and  _45
REMARK   18  A    between atoms: _45  and  _46
REMARK   19  A    between atoms: _45  and  _48
REMARK   20  A    between atoms: _48  and  _49
REMARK   21  A    between atoms: _52  and  _54
REMARK   22  A    between atoms: _54  and  _55
REMARK   23  A    between atoms: _54  and  _57
REMARK   24  A    between atoms: _57  and  _58
REMARK   25  A    between atoms: _58  and  _59
REMARK   26  A    between atoms: _59  and  _60
REMARK   27  A    between atoms: _60  and  _61
REMARK   28  A    between atoms: _65  and  _67
REMARK   29  A    between atoms: _67  and  _68
REMARK   30  A    between atoms: _67  and  _70
REMARK   31  A    between atoms: _70  and  _71
REMARK   32  A    between atoms: _71  and  _72
REMARK   33  A    between atoms: _75  and  _77
REMARK   34  A    between atoms: _77  and  _78
REMARK   35  A    between atoms: _77  and  _80
REMARK   36  A    between atoms: _80  and  _81
REMARK   37  A    between atoms: _84  and  _86
REMARK   38  A    between atoms: _86  and  _87
REMARK   39  A    between atoms: _86  and  _89
REMARK   40  A    between atoms: _89  and  _90
REMARK   41  A    between atoms: _95  and  _96
REMARK   42  A    between atoms: _98  and  _100
REMARK   43  A    between atoms: _100  and  _101
REMARK   44  A    between atoms: _100  and  _103
REMARK   45  A    between atoms: _103  and  _104
REMARK   46  A    between atoms: _107  and  _109
REMARK   47  A    between atoms: _109  and  _110
REMARK   48  A    between atoms: _109  and  _112
REMARK   49  A    between atoms: _112  and  _113
REMARK   50  A    between atoms: _116  and  _118
REMARK   51  A    between atoms: _118  and  _119
REMARK   52  A    between atoms: _118  and  _121
REMARK   53  A    between atoms: _124  and  _126
REMARK   54  A    between atoms: _126  and  _127
REMARK   55  A    between atoms: _126  and  _129
REMARK   56  A    between atoms: _129  and  _130
REMARK   57  A    between atoms: _130  and  _131
REMARK   58  A    between atoms: _131  and  _132
REMARK   59  A    between atoms: _141  and  _143
REMARK   60  A    between atoms: _143  and  _144
REMARK   61  A    between atoms: _143  and  _146
REMARK   62  A    between atoms: _146  and  _147
REMARK   63  A    between atoms: _152  and  _154
REMARK   64  A    between atoms: _154  and  _155
REMARK   65  A    between atoms: _154  and  _157
REMARK   66  A    between atoms: _157  and  _158
REMARK   67  A    between atoms: _158  and  _159
REMARK   68  A    between atoms: _162  and  _164
REMARK   69  A    between atoms: _164  and  _165
REMARK   70  A    between atoms: _164  and  _167
REMARK   71  A    between atoms: _167  and  _168
REMARK   72  A    between atoms: _168  and  _169
REMARK   73  A    between atoms: _169  and  _170
REMARK   74  A    between atoms: _170  and  _171
REMARK   75  A    between atoms: _175  and  _177
REMARK   76  A    between atoms: _177  and  _178
REMARK   77  A    between atoms: _177  and  _180
REMARK   78  A    between atoms: _183  and  _185
REMARK   79  A    between atoms: _185  and  _186
REMARK   80  A    between atoms: _185  and  _188
REMARK   81  A    between atoms: _188  and  _189
REMARK   82  A    between atoms: _191  and  _193
REMARK   83  A    between atoms: _193  and  _194
REMARK   84  A    between atoms: _193  and  _196
REMARK   85  A    between atoms: _196  and  _197
REMARK   86  A    between atoms: _199  and  _201
REMARK   87  A    between atoms: _201  and  _202
REMARK   88  A    between atoms: _201  and  _204
REMARK   89  A    between atoms: _204  and  _205
REMARK   90  A    between atoms: _211  and  _213
REMARK   91  A    between atoms: _213  and  _214
REMARK   92  A    between atoms: _213  and  _216
REMARK   93  A    between atoms: _216  and  _217
REMARK   94  A    between atoms: _220  and  _222
REMARK   95  A    between atoms: _222  and  _223
REMARK   96  A    between atoms: _222  and  _225
REMARK   97  A    between atoms: _225  and  _226
REMARK   98  A    between atoms: _229  and  _231
REMARK   99  A    between atoms: _231  and  _232
REMARK  100  A    between atoms: _231  and  _234
REMARK  101  A    between atoms: _234  and  _235
REMARK  102  A    between atoms: _238  and  _240
REMARK  103  A    between atoms: _240  and  _241
REMARK  104  A    between atoms: _240  and  _243
REMARK  105  A    between atoms: _243  and  _244
REMARK  106  A    between atoms: _244  and  _245
REMARK  107  A    between atoms: _247  and  _249
REMARK  108  A    between atoms: _249  and  _250
REMARK  109  A    between atoms: _249  and  _252
REMARK  110  A    between atoms: _252  and  _253
REMARK  111  A    between atoms: _259  and  _261
REMARK  112  A    between atoms: _261  and  _262
REMARK  113  A    between atoms: _261  and  _264
REMARK  114  A    between atoms: _266  and  _268
REMARK  115  A    between atoms: _268  and  _269
REMARK  116  A    between atoms: _272  and  _274
REMARK  117  A    between atoms: _274  and  _275
REMARK  118  A    between atoms: _277  and  _279
REMARK  119  A    between atoms: _279  and  _280
REMARK  120  A    between atoms: _279  and  _282
REMARK  121  A    between atoms: _282  and  _283
REMARK  122  A    between atoms: _283  and  _284
REMARK  123  A    between atoms: _287  and  _289
REMARK  124  A    between atoms: _289  and  _290
REMARK  125  A    between atoms: _289  and  _292
REMARK  126  A    between atoms: _292  and  _293
REMARK  127  A    between atoms: _296  and  _298
REMARK  128  A    between atoms: _298  and  _299
REMARK  129  A    between atoms: _302  and  _304
REMARK  130  A    between atoms: _304  and  _305
REMARK  131  A    between atoms: _304  and  _307
REMARK  132  A    between atoms: _307  and  _308
REMARK  133  A    between atoms: _308  and  _431
REMARK  134  A    between atoms: _309  and  _311
REMARK  135  A    between atoms: _311  and  _312
REMARK  136  A    between atoms: _311  and  _314
REMARK  137  A    between atoms: _314  and  _315
REMARK  138  A    between atoms: _315  and  _316
REMARK  139  A    between atoms: _321  and  _323
REMARK  140  A    between atoms: _323  and  _324
REMARK  141  A    between atoms: _326  and  _328
REMARK  142  A    between atoms: _328  and  _329
REMARK  143  A    between atoms: _328  and  _331
REMARK  144  A    between atoms: _331  and  _332
REMARK  145  A    between atoms: _335  and  _337
REMARK  146  A    between atoms: _337  and  _338
REMARK  147  A    between atoms: _337  and  _340
REMARK  148  A    between atoms: _340  and  _341
REMARK  149  A    between atoms: _343  and  _345
REMARK  150  A    between atoms: _345  and  _346
REMARK  151  A    between atoms: _348  and  _350
REMARK  152  A    between atoms: _350  and  _351
REMARK  153  A    between atoms: _353  and  _355
REMARK  154  A    between atoms: _355  and  _356
REMARK  155  A    between atoms: _355  and  _358
REMARK  156  A    between atoms: _358  and  _359
REMARK  157  A    between atoms: _364  and  _366
REMARK  158  A    between atoms: _366  and  _367
REMARK  159  A    between atoms: _366  and  _369
REMARK  160  A    between atoms: _369  and  _370
REMARK  161  A    between atoms: _373  and  _375
REMARK  162  A    between atoms: _375  and  _376
REMARK  163  A    between atoms: _375  and  _378
REMARK  164  A    between atoms: _381  and  _383
REMARK  165  A    between atoms: _383  and  _384
REMARK  166  A    between atoms: _383  and  _386
REMARK  167  A    between atoms: _386  and  _387
REMARK  168  A    between atoms: _389  and  _391
REMARK  169  A    between atoms: _391  and  _392
REMARK  170  A    between atoms: _391  and  _394
REMARK  171  A    between atoms: _394  and  _395
REMARK  172  A    between atoms: _405  and  _407
REMARK  173  A    between atoms: _407  and  _408
REMARK  174  A    between atoms: _410  and  _412
REMARK  175  A    between atoms: _412  and  _413
REMARK  176  A    between atoms: _412  and  _415
REMARK  177  A    between atoms: _415  and  _416
REMARK  178  A    between atoms: _416  and  _417
REMARK  179  A    between atoms: _420  and  _422
REMARK  180  A    between atoms: _422  and  _423
REMARK  181  A    between atoms: _425  and  _427
REMARK  182  A    between atoms: _427  and  _428
REMARK  183  A    between atoms: _427  and  _430
REMARK  184  A    between atoms: _430  and  _431
REMARK  185  A    between atoms: _432  and  _434
REMARK  186  A    between atoms: _434  and  _435
REMARK  187  A    between atoms: _438  and  _440
REMARK  188  A    between atoms: _440  and  _441
REMARK  189  A    between atoms: _440  and  _443
REMARK  190  A    between atoms: _443  and  _444
REMARK  191  A    between atoms: _444  and  _445
REMARK  192  A    between atoms: _445  and  _446
REMARK  193  A    between atoms: _455  and  _457
REMARK  194  A    between atoms: _457  and  _458
REMARK  195  A    between atoms: _457  and  _460
REMARK  196  A    between atoms: _460  and  _461
REMARK  197  A    between atoms: _461  and  _462
REMARK  198  A    between atoms: _462  and  _463
REMARK  199  A    between atoms: _463  and  _464
REMARK  200  A    between atoms: _468  and  _470
REMARK  201  A    between atoms: _470  and  _471
REMARK  202  A    between atoms: _470  and  _473
REMARK  203  A    between atoms: _473  and  _474
REMARK  204  A    between atoms: _479  and  _480
REMARK  205  A    between atoms: _482  and  _484
REMARK  206  A    between atoms: _484  and  _485
REMARK  207  A    between atoms: _487  and  _489
REMARK  208  A    between atoms: _489  and  _490
REMARK  209  A    between atoms: _489  and  _492
REMARK  210  A    between atoms: _492  and  _493
REMARK  211  A    between atoms: _496  and  _498
REMARK  212  A    between atoms: _498  and  _499
REMARK  213  A    between atoms: _498  and  _501
REMARK  214  A    between atoms: _501  and  _502
REMARK  215  A    between atoms: _507  and  _508
REMARK  216  A    between atoms: _510  and  _512
REMARK  217  A    between atoms: _512  and  _513
REMARK  218  A    between atoms: _512  and  _515
REMARK  219  A    between atoms: _515  and  _516
REMARK                            x       y       z     vdW  Elec       q    Type
REMARK                         _______ _______ _______ _____ _____    ______ ____
ROOT
ATOM      1  O   HOH     1     -11.961   9.983  22.562  0.00  0.00    +0.000 OA
ENDROOT
TORSDOF 0
REMARK  Name = ../refined-set-2016/2vvu/2vvu_pocket.pdb
REMARK  219 active torsions:
REMARK  status: ('A' for Active; 'I' for Inactive)
REMARK    1  A    between atoms: _1  and  _5
REMARK    2  A    between atoms: _5  and  _6
REMARK    3  A    between atoms: _5  and  _8
REMARK    4  A    between atoms: _8  and  _9
REMARK    5  A    between atoms: _12  and  _14
REMARK    6  A    between atoms: _14  and  _15
REMARK    7  A    between atoms: _14  and  _17
REMARK    8  A    between atoms: _20  and  _22
REMARK    9  A    between atoms: _22  and  _23
REMARK   10  A    between atoms: _22  and  _25
REMARK   11  A    between atoms: _25  and  _26
REMARK   12  A    between atoms: _31  and  _33
REMARK   13  A    between atoms: _33  and  _34
REMARK   14  A    between atoms: _33  and  _36
REMARK   15  A    between atoms: _36  and  _37
REMARK   16  A    between atoms: _37  and  _38
REMARK   17  A    between atoms: _43  and  _45
REMARK   18  A    between atoms: _45  and  _46
REMARK   19  A    between atoms: _45  and  _48
REMARK   20  A    between atoms: _48  and  _49
REMARK   21  A    between atoms: _52  and  _54
REMARK   22  A    between atoms: _54  and  _55
REMARK   23  A    between atoms: _54  and  _57
REMARK   24  A    between atoms: _57  and  _58
REMARK   25  A    between atoms: _58  and  _59
REMARK   26  A    between atoms: _59  and  _60
REMARK   27  A    between atoms: _60  and  _61
REMARK   28  A    between atoms: _65  and  _67
REMARK   29  A    between atoms: _67  and  _68
REMARK   30  A    between atoms: _67  and  _70
REMARK   31  A    between atoms: _70  and  _71
REMARK   32  A    between atoms: _71  and  _72
REMARK   33  A    between atoms: _75  and  _77
REMARK   34  A    between atoms: _77  and  _78
REMARK   35  A    between atoms: _77  and  _80
REMARK   36  A    between atoms: _80  and  _81
REMARK   37  A    between atoms: _84  and  _86
REMARK   38  A    between atoms: _86  and  _87
REMARK   39  A    between atoms: _86  and  _89
REMARK   40  A    between atoms: _89  and  _90
REMARK   41  A    between atoms: _95  and  _96
REMARK   42  A    between atoms: _98  and  _100
REMARK   43  A    between atoms: _100  and  _101
REMARK   44  A    between atoms: _100  and  _103
REMARK   45  A    between atoms: _103  and  _104
REMARK   46  A    between atoms: _107  and  _109
REMARK   47  A    between atoms: _109  and  _110
REMARK   48  A    between atoms: _109  and  _112
REMARK   49  A    between atoms: _112  and  _113
REMARK   50  A    between atoms: _116  and  _118
REMARK   51  A    between atoms: _118  and  _119
REMARK   52  A    between atoms: _118  and  _121
REMARK   53  A    between atoms: _124  and  _126
REMARK   54  A    between atoms: _126  and  _127
REMARK   55  A    between atoms: _126  and  _129
REMARK   56  A    between atoms: _129  and  _130
REMARK   57  A    between atoms: _130  and  _131
REMARK   58  A    between atoms: _131  and  _132
REMARK   59  A    between atoms: _141  and  _143
REMARK   60  A    between atoms: _143  and  _144
REMARK   61  A    between atoms: _143  and  _146
REMARK   62  A    between atoms: _146  and  _147
REMARK   63  A    between atoms: _152  and  _154
REMARK   64  A    between atoms: _154  and  _155
REMARK   65  A    between atoms: _154  and  _157
REMARK   66  A    between atoms: _157  and  _158
REMARK   67  A    between atoms: _158  and  _159
REMARK   68  A    between atoms: _162  and  _164
REMARK   69  A    between atoms: _164  and  _165
REMARK   70  A    between atoms: _164  and  _167
REMARK   71  A    between atoms: _167  and  _168
REMARK   72  A    between atoms: _168  and  _169
REMARK   73  A    between atoms: _169  and  _170
REMARK   74  A    between atoms: _170  and  _171
REMARK   75  A    between atoms: _175  and  _177
REMARK   76  A    between atoms: _177  and  _178
REMARK   77  A    between atoms: _177  and  _180
REMARK   78  A    between atoms: _183  and  _185
REMARK   79  A    between atoms: _185  and  _186
REMARK   80  A    between atoms: _185  and  _188
REMARK   81  A    between atoms: _188  and  _189
REMARK   82  A    between atoms: _191  and  _193
REMARK   83  A    between atoms: _193  and  _194
REMARK   84  A    between atoms: _193  and  _196
REMARK   85  A    between atoms: _196  and  _197
REMARK   86  A    between atoms: _199  and  _201
REMARK   87  A    between atoms: _201  and  _202
REMARK   88  A    between atoms: _201  and  _204
REMARK   89  A    between atoms: _204  and  _205
REMARK   90  A    between atoms: _211  and  _213
REMARK   91  A    between atoms: _213  and  _214
REMARK   92  A    between atoms: _213  and  _216
REMARK   93  A    between atoms: _216  and  _217
REMARK   94  A    between atoms: _220  and  _222
REMARK   95  A    between atoms: _222  and  _223
REMARK   96  A    between atoms: _222  and  _225
REMARK   97  A    between atoms: _225  and  _226
REMARK   98  A    between atoms: _229  and  _231
REMARK   99  A    between atoms: _231  and  _232
REMARK  100  A    between atoms: _231  and  _234
REMARK  101  A    between atoms: _234  and  _235
REMARK  102  A    between atoms: _238  and  _240
REMARK  103  A    between atoms: _240  and  _241
REMARK  104  A    between atoms: _240  and  _243
REMARK  105  A    between atoms: _243  and  _244
REMARK  106  A    between atoms: _244  and  _245
REMARK  107  A    between atoms: _247  and  _249
REMARK  108  A    between atoms: _249  and  _250
REMARK  109  A    between atoms: _249  and  _252
REMARK  110  A    between atoms: _252  and  _253
REMARK  111  A    between atoms: _259  and  _261
REMARK  112  A    between atoms: _261  and  _262
REMARK  113  A    between atoms: _261  and  _264
REMARK  114  A    between atoms: _266  and  _268
REMARK  115  A    between atoms: _268  and  _269
REMARK  116  A    between atoms: _272  and  _274
REMARK  117  A    between atoms: _274  and  _275
REMARK  118  A    between atoms: _277  and  _279
REMARK  119  A    between atoms: _279  and  _280
REMARK  120  A    between atoms: _279  and  _282
REMARK  121  A    between atoms: _282  and  _283
REMARK  122  A    between atoms: _283  and  _284
REMARK  123  A    between atoms: _287  and  _289
REMARK  124  A    between atoms: _289  and  _290
REMARK  125  A    between atoms: _289  and  _292
REMARK  126  A    between atoms: _292  and  _293
REMARK  127  A    between atoms: _296  and  _298
REMARK  128  A    between atoms: _298  and  _299
REMARK  129  A    between atoms: _302  and  _304
REMARK  130  A    between atoms: _304  and  _305
REMARK  131  A    between atoms: _304  and  _307
REMARK  132  A    between atoms: _307  and  _308
REMARK  133  A    between atoms: _308  and  _431
REMARK  134  A    between atoms: _309  and  _311
REMARK  135  A    between atoms: _311  and  _312
REMARK  136  A    between atoms: _311  and  _314
REMARK  137  A    between atoms: _314  and  _315
REMARK  138  A    between atoms: _315  and  _316
REMARK  139  A    between atoms: _321  and  _323
REMARK  140  A    between atoms: _323  and  _324
REMARK  141  A    between atoms: _326  and  _328
REMARK  142  A    between atoms: _328  and  _329
REMARK  143  A    between atoms: _328  and  _331
REMARK  144  A    between atoms: _331  and  _332
REMARK  145  A    between atoms: _335  and  _337
REMARK  146  A    between atoms: _337  and  _338
REMARK  147  A    between atoms: _337  and  _340
REMARK  148  A    between atoms: _340  and  _341
REMARK  149  A    between atoms: _343  and  _345
REMARK  150  A    between atoms: _345  and  _346
REMARK  151  A    between atoms: _348  and  _350
REMARK  152  A    between atoms: _350  and  _351
REMARK  153  A    between atoms: _353  and  _355
REMARK  154  A    between atoms: _355  and  _356
REMARK  155  A    between atoms: _355  and  _358
REMARK  156  A    between atoms: _358  and  _359
REMARK  157  A    between atoms: _364  and  _366
REMARK  158  A    between atoms: _366  and  _367
REMARK  159  A    between atoms: _366  and  _369
REMARK  160  A    between atoms: _369  and  _370
REMARK  161  A    between atoms: _373  and  _375
REMARK  162  A    between atoms: _375  and  _376
REMARK  163  A    between atoms: _375  and  _378
REMARK  164  A    between atoms: _381  and  _383
REMARK  165  A    between atoms: _383  and  _384
REMARK  166  A    between atoms: _383  and  _386
REMARK  167  A    between atoms: _386  and  _387
REMARK  168  A    between atoms: _389  and  _391
REMARK  169  A    between atoms: _391  and  _392
REMARK  170  A    between atoms: _391  and  _394
REMARK  171  A    between atoms: _394  and  _395
REMARK  172  A    between atoms: _405  and  _407
REMARK  173  A    between atoms: _407  and  _408
REMARK  174  A    between atoms: _410  and  _412
REMARK  175  A    between atoms: _412  and  _413
REMARK  176  A    between atoms: _412  and  _415
REMARK  177  A    between atoms: _415  and  _416
REMARK  178  A    between atoms: _416  and  _417
REMARK  179  A    between atoms: _420  and  _422
REMARK  180  A    between atoms: _422  and  _423
REMARK  181  A    between atoms: _425  and  _427
REMARK  182  A    between atoms: _427  and  _428
REMARK  183  A    between atoms: _427  and  _430
REMARK  184  A    between atoms: _430  and  _431
REMARK  185  A    between atoms: _432  and  _434
REMARK  186  A    between atoms: _434  and  _435
REMARK  187  A    between atoms: _438  and  _440
REMARK  188  A    between atoms: _440  and  _441
REMARK  189  A    between atoms: _440  and  _443
REMARK  190  A    between atoms: _443  and  _444
REMARK  191  A    between atoms: _444  and  _445
REMARK  192  A    between atoms: _445  and  _446
REMARK  193  A    between atoms: _455  and  _457
REMARK  194  A    between atoms: _457  and  _458
REMARK  195  A    between atoms: _457  and  _460
REMARK  196  A    between atoms: _460  and  _461
REMARK  197  A    between atoms: _461  and  _462
REMARK  198  A    between atoms: _462  and  _463
REMARK  199  A    between atoms: _463  and  _464
REMARK  200  A    between atoms: _468  and  _470
REMARK  201  A    between atoms: _470  and  _471
REMARK  202  A    between atoms: _470  and  _473
REMARK  203  A    between atoms: _473  and  _474
REMARK  204  A    between atoms: _479  and  _480
REMARK  205  A    between atoms: _482  and  _484
REMARK  206  A    between atoms: _484  and  _485
REMARK  207  A    between atoms: _487  and  _489
REMARK  208  A    between atoms: _489  and  _490
REMARK  209  A    between atoms: _489  and  _492
REMARK  210  A    between atoms: _492  and  _493
REMARK  211  A    between atoms: _496  and  _498
REMARK  212  A    between atoms: _498  and  _499
REMARK  213  A    between atoms: _498  and  _501
REMARK  214  A    between atoms: _501  and  _502
REMARK  215  A    between atoms: _507  and  _508
REMARK  216  A    between atoms: _510  and  _512
REMARK  217  A    between atoms: _512  and  _513
REMARK  218  A    between atoms: _512  and  _515
REMARK  219  A    between atoms: _515  and  _516
REMARK                            x       y       z     vdW  Elec       q    Type
REMARK                         _______ _______ _______ _____ _____    ______ ____
ROOT
ATOM      1  O   HOH     1      -6.331   6.241  32.713  0.00  0.00    +0.000 OA
ENDROOT
TORSDOF 0
REMARK  Name = ../refined-set-2016/2vvu/2vvu_pocket.pdb
REMARK  219 active torsions:
REMARK  status: ('A' for Active; 'I' for Inactive)
REMARK    1  A    between atoms: _1  and  _5
REMARK    2  A    between atoms: _5  and  _6
REMARK    3  A    between atoms: _5  and  _8
REMARK    4  A    between atoms: _8  and  _9
REMARK    5  A    between atoms: _12  and  _14
REMARK    6  A    between atoms: _14  and  _15
REMARK    7  A    between atoms: _14  and  _17
REMARK    8  A    between atoms: _20  and  _22
REMARK    9  A    between atoms: _22  and  _23
REMARK   10  A    between atoms: _22  and  _25
REMARK   11  A    between atoms: _25  and  _26
REMARK   12  A    between atoms: _31  and  _33
REMARK   13  A    between atoms: _33  and  _34
REMARK   14  A    between atoms: _33  and  _36
REMARK   15  A    between atoms: _36  and  _37
REMARK   16  A    between atoms: _37  and  _38
REMARK   17  A    between atoms: _43  and  _45
REMARK   18  A    between atoms: _45  and  _46
REMARK   19  A    between atoms: _45  and  _48
REMARK   20  A    between atoms: _48  and  _49
REMARK   21  A    between atoms: _52  and  _54
REMARK   22  A    between atoms: _54  and  _55
REMARK   23  A    between atoms: _54  and  _57
REMARK   24  A    between atoms: _57  and  _58
REMARK   25  A    between atoms: _58  and  _59
REMARK   26  A    between atoms: _59  and  _60
REMARK   27  A    between atoms: _60  and  _61
REMARK   28  A    between atoms: _65  and  _67
REMARK   29  A    between atoms: _67  and  _68
REMARK   30  A    between atoms: _67  and  _70
REMARK   31  A    between atoms: _70  and  _71
REMARK   32  A    between atoms: _71  and  _72
REMARK   33  A    between atoms: _75  and  _77
REMARK   34  A    between atoms: _77  and  _78
REMARK   35  A    between atoms: _77  and  _80
REMARK   36  A    between atoms: _80  and  _81
REMARK   37  A    between atoms: _84  and  _86
REMARK   38  A    between atoms: _86  and  _87
REMARK   39  A    between atoms: _86  and  _89
REMARK   40  A    between atoms: _89  and  _90
REMARK   41  A    between atoms: _95  and  _96
REMARK   42  A    between atoms: _98  and  _100
REMARK   43  A    between atoms: _100  and  _101
REMARK   44  A    between atoms: _100  and  _103
REMARK   45  A    between atoms: _103  and  _104
REMARK   46  A    between atoms: _107  and  _109
REMARK   47  A    between atoms: _109  and  _110
REMARK   48  A    between atoms: _109  and  _112
REMARK   49  A    between atoms: _112  and  _113
REMARK   50  A    between atoms: _116  and  _118
REMARK   51  A    between atoms: _118  and  _119
REMARK   52  A    between atoms: _118  and  _121
REMARK   53  A    between atoms: _124  and  _126
REMARK   54  A    between atoms: _126  and  _127
REMARK   55  A    between atoms: _126  and  _129
REMARK   56  A    between atoms: _129  and  _130
REMARK   57  A    between atoms: _130  and  _131
REMARK   58  A    between atoms: _131  and  _132
REMARK   59  A    between atoms: _141  and  _143
REMARK   60  A    between atoms: _143  and  _144
REMARK   61  A    between atoms: _143  and  _146
REMARK   62  A    between atoms: _146  and  _147
REMARK   63  A    between atoms: _152  and  _154
REMARK   64  A    between atoms: _154  and  _155
REMARK   65  A    between atoms: _154  and  _157
REMARK   66  A    between atoms: _157  and  _158
REMARK   67  A    between atoms: _158  and  _159
REMARK   68  A    between atoms: _162  and  _164
REMARK   69  A    between atoms: _164  and  _165
REMARK   70  A    between atoms: _164  and  _167
REMARK   71  A    between atoms: _167  and  _168
REMARK   72  A    between atoms: _168  and  _169
REMARK   73  A    between atoms: _169  and  _170
REMARK   74  A    between atoms: _170  and  _171
REMARK   75  A    between atoms: _175  and  _177
REMARK   76  A    between atoms: _177  and  _178
REMARK   77  A    between atoms: _177  and  _180
REMARK   78  A    between atoms: _183  and  _185
REMARK   79  A    between atoms: _185  and  _186
REMARK   80  A    between atoms: _185  and  _188
REMARK   81  A    between atoms: _188  and  _189
REMARK   82  A    between atoms: _191  and  _193
REMARK   83  A    between atoms: _193  and  _194
REMARK   84  A    between atoms: _193  and  _196
REMARK   85  A    between atoms: _196  and  _197
REMARK   86  A    between atoms: _199  and  _201
REMARK   87  A    between atoms: _201  and  _202
REMARK   88  A    between atoms: _201  and  _204
REMARK   89  A    between atoms: _204  and  _205
REMARK   90  A    between atoms: _211  and  _213
REMARK   91  A    between atoms: _213  and  _214
REMARK   92  A    between atoms: _213  and  _216
REMARK   93  A    between atoms: _216  and  _217
REMARK   94  A    between atoms: _220  and  _222
REMARK   95  A    between atoms: _222  and  _223
REMARK   96  A    between atoms: _222  and  _225
REMARK   97  A    between atoms: _225  and  _226
REMARK   98  A    between atoms: _229  and  _231
REMARK   99  A    between atoms: _231  and  _232
REMARK  100  A    between atoms: _231  and  _234
REMARK  101  A    between atoms: _234  and  _235
REMARK  102  A    between atoms: _238  and  _240
REMARK  103  A    between atoms: _240  and  _241
REMARK  104  A    between atoms: _240  and  _243
REMARK  105  A    between atoms: _243  and  _244
REMARK  106  A    between atoms: _244  and  _245
REMARK  107  A    between atoms: _247  and  _249
REMARK  108  A    between atoms: _249  and  _250
REMARK  109  A    between atoms: _249  and  _252
REMARK  110  A    between atoms: _252  and  _253
REMARK  111  A    between atoms: _259  and  _261
REMARK  112  A    between atoms: _261  and  _262
REMARK  113  A    between atoms: _261  and  _264
REMARK  114  A    between atoms: _266  and  _268
REMARK  115  A    between atoms: _268  and  _269
REMARK  116  A    between atoms: _272  and  _274
REMARK  117  A    between atoms: _274  and  _275
REMARK  118  A    between atoms: _277  and  _279
REMARK  119  A    between atoms: _279  and  _280
REMARK  120  A    between atoms: _279  and  _282
REMARK  121  A    between atoms: _282  and  _283
REMARK  122  A    between atoms: _283  and  _284
REMARK  123  A    between atoms: _287  and  _289
REMARK  124  A    between atoms: _289  and  _290
REMARK  125  A    between atoms: _289  and  _292
REMARK  126  A    between atoms: _292  and  _293
REMARK  127  A    between atoms: _296  and  _298
REMARK  128  A    between atoms: _298  and  _299
REMARK  129  A    between atoms: _302  and  _304
REMARK  130  A    between atoms: _304  and  _305
REMARK  131  A    between atoms: _304  and  _307
REMARK  132  A    between atoms: _307  and  _308
REMARK  133  A    between atoms: _308  and  _431
REMARK  134  A    between atoms: _309  and  _311
REMARK  135  A    between atoms: _311  and  _312
REMARK  136  A    between atoms: _311  and  _314
REMARK  137  A    between atoms: _314  and  _315
REMARK  138  A    between atoms: _315  and  _316
REMARK  139  A    between atoms: _321  and  _323
REMARK  140  A    between atoms: _323  and  _324
REMARK  141  A    between atoms: _326  and  _328
REMARK  142  A    between atoms: _328  and  _329
REMARK  143  A    between atoms: _328  and  _331
REMARK  144  A    between atoms: _331  and  _332
REMARK  145  A    between atoms: _335  and  _337
REMARK  146  A    between atoms: _337  and  _338
REMARK  147  A    between atoms: _337  and  _340
REMARK  148  A    between atoms: _340  and  _341
REMARK  149  A    between atoms: _343  and  _345
REMARK  150  A    between atoms: _345  and  _346
REMARK  151  A    between atoms: _348  and  _350
REMARK  152  A    between atoms: _350  and  _351
REMARK  153  A    between atoms: _353  and  _355
REMARK  154  A    between atoms: _355  and  _356
REMARK  155  A    between atoms: _355  and  _358
REMARK  156  A    between atoms: _358  and  _359
REMARK  157  A    between atoms: _364  and  _366
REMARK  158  A    between atoms: _366  and  _367
REMARK  159  A    between atoms: _366  and  _369
REMARK  160  A    between atoms: _369  and  _370
REMARK  161  A    between atoms: _373  and  _375
REMARK  162  A    between atoms: _375  and  _376
REMARK  163  A    between atoms: _375  and  _378
REMARK  164  A    between atoms: _381  and  _383
REMARK  165  A    between atoms: _383  and  _384
REMARK  166  A    between atoms: _383  and  _386
REMARK  167  A    between atoms: _386  and  _387
REMARK  168  A    between atoms: _389  and  _391
REMARK  169  A    between atoms: _391  and  _392
REMARK  170  A    between atoms: _391  and  _394
REMARK  171  A    between atoms: _394  and  _395
REMARK  172  A    between atoms: _405  and  _407
REMARK  173  A    between atoms: _407  and  _408
REMARK  174  A    between atoms: _410  and  _412
REMARK  175  A    between atoms: _412  and  _413
REMARK  176  A    between atoms: _412  and  _415
REMARK  177  A    between atoms: _415  and  _416
REMARK  178  A    between atoms: _416  and  _417
REMARK  179  A    between atoms: _420  and  _422
REMARK  180  A    between atoms: _422  and  _423
REMARK  181  A    between atoms: _425  and  _427
REMARK  182  A    between atoms: _427  and  _428
REMARK  183  A    between atoms: _427  and  _430
REMARK  184  A    between atoms: _430  and  _431
REMARK  185  A    between atoms: _432  and  _434
REMARK  186  A    between atoms: _434  and  _435
REMARK  187  A    between atoms: _438  and  _440
REMARK  188  A    between atoms: _440  and  _441
REMARK  189  A    between atoms: _440  and  _443
REMARK  190  A    between atoms: _443  and  _444
REMARK  191  A    between atoms: _444  and  _445
REMARK  192  A    between atoms: _445  and  _446
REMARK  193  A    between atoms: _455  and  _457
REMARK  194  A    between atoms: _457  and  _458
REMARK  195  A    between atoms: _457  and  _460
REMARK  196  A    between atoms: _460  and  _461
REMARK  197  A    between atoms: _461  and  _462
REMARK  198  A    between atoms: _462  and  _463
REMARK  199  A    between atoms: _463  and  _464
REMARK  200  A    between atoms: _468  and  _470
REMARK  201  A    between atoms: _470  and  _471
REMARK  202  A    between atoms: _470  and  _473
REMARK  203  A    between atoms: _473  and  _474
REMARK  204  A    between atoms: _479  and  _480
REMARK  205  A    between atoms: _482  and  _484
REMARK  206  A    between atoms: _484  and  _485
REMARK  207  A    between atoms: _487  and  _489
REMARK  208  A    between atoms: _489  and  _490
REMARK  209  A    between atoms: _489  and  _492
REMARK  210  A    between atoms: _492  and  _493
REMARK  211  A    between atoms: _496  and  _498
REMARK  212  A    between atoms: _498  and  _499
REMARK  213  A    between atoms: _498  and  _501
REMARK  214  A    between atoms: _501  and  _502
REMARK  215  A    between atoms: _507  and  _508
REMARK  216  A    between atoms: _510  and  _512
REMARK  217  A    between atoms: _512  and  _513
REMARK  218  A    between atoms: _512  and  _515
REMARK  219  A    between atoms: _515  and  _516
REMARK                            x       y       z     vdW  Elec       q    Type
REMARK                         _______ _______ _______ _____ _____    ______ ____
ROOT
ATOM      1  O   HOH     1      -7.752   5.488  26.691  0.00  0.00    +0.000 OA
ENDROOT
TORSDOF 0
