REMARK  Name = ../refined-set-2016/1bn4/1bn4_pocket.pdb
REMARK  155 active torsions:
REMARK  status: ('A' for Active; 'I' for Inactive)
REMARK    1  A    between atoms: _1  and  _3
REMARK    2  A    between atoms: _3  and  _4
REMARK    3  A    between atoms: _3  and  _6
REMARK    4  A    between atoms: _6  and  _7
REMARK    5  A    between atoms: _17  and  _19
REMARK    6  A    between atoms: _19  and  _20
REMARK    7  A    between atoms: _19  and  _22
REMARK    8  A    between atoms: _22  and  _23
REMARK    9  A    between atoms: _28  and  _29
REMARK   10  A    between atoms: _31  and  _33
REMARK   11  A    between atoms: _33  and  _34
REMARK   12  A    between atoms: _33  and  _36
REMARK   13  A    between atoms: _36  and  _37
REMARK   14  A    between atoms: _40  and  _41
REMARK   15  A    between atoms: _46  and  _48
REMARK   16  A    between atoms: _48  and  _49
REMARK   17  A    between atoms: _48  and  _51
REMARK   18  A    between atoms: _51  and  _52
REMARK   19  A    between atoms: _57  and  _59
REMARK   20  A    between atoms: _59  and  _60
REMARK   21  A    between atoms: _59  and  _62
REMARK   22  A    between atoms: _62  and  _63
REMARK   23  A    between atoms: _68  and  _70
REMARK   24  A    between atoms: _70  and  _71
REMARK   25  A    between atoms: _70  and  _73
REMARK   26  A    between atoms: _73  and  _74
REMARK   27  A    between atoms: _77  and  _79
REMARK   28  A    between atoms: _79  and  _80
REMARK   29  A    between atoms: _79  and  _82
REMARK   30  A    between atoms: _82  and  _83
REMARK   31  A    between atoms: _83  and  _84
REMARK   32  A    between atoms: _89  and  _91
REMARK   33  A    between atoms: _91  and  _92
REMARK   34  A    between atoms: _91  and  _94
REMARK   35  A    between atoms: _94  and  _95
REMARK   36  A    between atoms: _101  and  _103
REMARK   37  A    between atoms: _114  and  _117
REMARK   38  A    between atoms: _117  and  _118
REMARK   39  A    between atoms: _126  and  _127
REMARK   40  A    between atoms: _135  and  _137
REMARK   41  A    between atoms: _137  and  _138
REMARK   42  A    between atoms: _137  and  _140
REMARK   43  A    between atoms: _140  and  _141
REMARK   44  A    between atoms: _141  and  _142
REMARK   45  A    between atoms: _145  and  _147
REMARK   46  A    between atoms: _147  and  _148
REMARK   47  A    between atoms: _147  and  _150
REMARK   48  A    between atoms: _150  and  _151
REMARK   49  A    between atoms: _156  and  _158
REMARK   50  A    between atoms: _158  and  _159
REMARK   51  A    between atoms: _158  and  _161
REMARK   52  A    between atoms: _161  and  _162
REMARK   53  A    between atoms: _162  and  _163
REMARK   54  A    between atoms: _166  and  _168
REMARK   55  A    between atoms: _168  and  _169
REMARK   56  A    between atoms: _168  and  _171
REMARK   57  A    between atoms: _171  and  _172
REMARK   58  A    between atoms: _175  and  _177
REMARK   59  A    between atoms: _177  and  _178
REMARK   60  A    between atoms: _177  and  _180
REMARK   61  A    between atoms: _180  and  _181
REMARK   62  A    between atoms: _182  and  ZN_428
REMARK   63  A    between atoms: _186  and  _188
REMARK   64  A    between atoms: _188  and  _189
REMARK   65  A    between atoms: _188  and  _191
REMARK   66  A    between atoms: _191  and  _192
REMARK   67  A    between atoms: _195  and  _197
REMARK   68  A    between atoms: _197  and  _198
REMARK   69  A    between atoms: _197  and  _200
REMARK   70  A    between atoms: _203  and  _205
REMARK   71  A    between atoms: _205  and  _206
REMARK   72  A    between atoms: _205  and  _208
REMARK   73  A    between atoms: _208  and  _209
REMARK   74  A    between atoms: _214  and  _216
REMARK   75  A    between atoms: _216  and  _217
REMARK   76  A    between atoms: _216  and  _219
REMARK   77  A    between atoms: _219  and  _220
REMARK   78  A    between atoms: _226  and  _228
REMARK   79  A    between atoms: _228  and  _229
REMARK   80  A    between atoms: _231  and  _233
REMARK   81  A    between atoms: _233  and  _234
REMARK   82  A    between atoms: _233  and  _236
REMARK   83  A    between atoms: _236  and  _237
REMARK   84  A    between atoms: _237  and  _238
REMARK   85  A    between atoms: _238  and  _239
REMARK   86  A    between atoms: _239  and  _240
REMARK   87  A    between atoms: _244  and  _246
REMARK   88  A    between atoms: _246  and  _247
REMARK   89  A    between atoms: _250  and  _252
REMARK   90  A    between atoms: _252  and  _253
REMARK   91  A    between atoms: _252  and  _255
REMARK   92  A    between atoms: _258  and  _260
REMARK   93  A    between atoms: _260  and  _261
REMARK   94  A    between atoms: _260  and  _263
REMARK   95  A    between atoms: _263  and  _264
REMARK   96  A    between atoms: _264  and  _265
REMARK   97  A    between atoms: _270  and  _272
REMARK   98  A    between atoms: _272  and  _273
REMARK   99  A    between atoms: _272  and  _275
REMARK  100  A    between atoms: _275  and  _276
REMARK  101  A    between atoms: _279  and  _281
REMARK  102  A    between atoms: _281  and  _282
REMARK  103  A    between atoms: _285  and  _287
REMARK  104  A    between atoms: _287  and  _288
REMARK  105  A    between atoms: _287  and  _290
REMARK  106  A    between atoms: _293  and  _295
REMARK  107  A    between atoms: _295  and  _296
REMARK  108  A    between atoms: _295  and  _298
REMARK  109  A    between atoms: _298  and  _299
REMARK  110  A    between atoms: _302  and  _304
REMARK  111  A    between atoms: _304  and  _305
REMARK  112  A    between atoms: _304  and  _307
REMARK  113  A    between atoms: _307  and  _308
REMARK  114  A    between atoms: _310  and  _312
REMARK  115  A    between atoms: _312  and  _313
REMARK  116  A    between atoms: _312  and  _315
REMARK  117  A    between atoms: _315  and  _316
REMARK  118  A    between atoms: _319  and  _321
REMARK  119  A    between atoms: _321  and  _322
REMARK  120  A    between atoms: _321  and  _324
REMARK  121  A    between atoms: _324  and  _325
REMARK  122  A    between atoms: _328  and  _330
REMARK  123  A    between atoms: _330  and  _331
REMARK  124  A    between atoms: _330  and  _333
REMARK  125  A    between atoms: _333  and  _334
REMARK  126  A    between atoms: _338  and  _339
REMARK  127  A    between atoms: _345  and  _346
REMARK  128  A    between atoms: _351  and  _353
REMARK  129  A    between atoms: _353  and  _354
REMARK  130  A    between atoms: _353  and  _356
REMARK  131  A    between atoms: _356  and  _357
REMARK  132  A    between atoms: _360  and  _362
REMARK  133  A    between atoms: _362  and  _363
REMARK  134  A    between atoms: _362  and  _365
REMARK  135  A    between atoms: _365  and  _366
REMARK  136  A    between atoms: _369  and  _371
REMARK  137  A    between atoms: _371  and  _372
REMARK  138  A    between atoms: _371  and  _374
REMARK  139  A    between atoms: _376  and  _378
REMARK  140  A    between atoms: _378  and  _379
REMARK  141  A    between atoms: _378  and  _381
REMARK  142  A    between atoms: _384  and  _386
REMARK  143  A    between atoms: _386  and  _387
REMARK  144  A    between atoms: _386  and  _389
REMARK  145  A    between atoms: _389  and  _390
REMARK  146  A    between atoms: _400  and  _402
REMARK  147  A    between atoms: _402  and  _403
REMARK  148  A    between atoms: _402  and  _405
REMARK  149  A    between atoms: _405  and  _406
REMARK  150  A    between atoms: _411  and  _413
REMARK  151  A    between atoms: _413  and  _414
REMARK  152  A    between atoms: _413  and  _416
REMARK  153  A    between atoms: _416  and  _417
REMARK  154  A    between atoms: _417  and  _418
REMARK  155  A    between atoms: _418  and  _419
REMARK                            x       y       z     vdW  Elec       q    Type
REMARK                         _______ _______ _______ _____ _____    ______ ____
ROOT
ATOM      1  CG  TRP A   1       5.510   0.177  12.269  0.00  0.00    -0.002 A 
ATOM      2  CD2 TRP A   1       4.159  -0.301  12.173  0.00  0.00    +0.013 A 
ATOM      3  CE3 TRP A   1       3.551  -1.546  12.389  0.00  0.00    +0.001 A 
ATOM      4  CZ3 TRP A   1       2.177  -1.659  12.210  0.00  0.00    +0.000 A 
ATOM      5  CH2 TRP A   1       1.409  -0.552  11.817  0.00  0.00    +0.001 A 
ATOM      6  CZ2 TRP A   1       1.978   0.678  11.596  0.00  0.00    +0.017 A 
ATOM      7  CE2 TRP A   1       3.357   0.791  11.779  0.00  0.00    +0.056 A 
ATOM      8  NE1 TRP A   1       4.180   1.880  11.645  0.00  0.00    -0.352 N 
ATOM      9  HE1 TRP A   1       3.877   2.836  11.368  0.00  0.00    +0.166 HD
ATOM     10  CD1 TRP A   1       5.472   1.503  11.937  0.00  0.00    +0.068 A 
ENDROOT
BRANCH   1  11
ATOM     11  CB  TRP A   1       6.719  -0.623  12.675  0.00  0.00    +0.053 C 
BRANCH  11  12
ATOM     12  CA  TRP A   1       7.457  -1.279  11.503  0.00  0.00    +0.137 C 
BRANCH  12  13
ATOM     13  N   TRP A   1       8.041  -0.255  10.656  0.00  0.00    -0.239 NA
ATOM     14  H   TRP A   1       7.804   0.743  10.829  0.00  0.00    +0.142 HD
ENDBRANCH  12  13
BRANCH  12  15
ATOM     15  C   TRP A   1       6.498  -2.140  10.685  0.00  0.00    +0.224 C 
ATOM     16  O   TRP A   1       6.015  -1.727   9.621  0.00  0.00    -0.287 OA
ENDBRANCH  12  15
ENDBRANCH  11  12
ENDBRANCH   1  11
TORSDOF 4
REMARK  Name = ../refined-set-2016/1bn4/1bn4_pocket.pdb
REMARK  155 active torsions:
REMARK  status: ('A' for Active; 'I' for Inactive)
REMARK    1  A    between atoms: _1  and  _3
REMARK    2  A    between atoms: _3  and  _4
REMARK    3  A    between atoms: _3  and  _6
REMARK    4  A    between atoms: _6  and  _7
REMARK    5  A    between atoms: _17  and  _19
REMARK    6  A    between atoms: _19  and  _20
REMARK    7  A    between atoms: _19  and  _22
REMARK    8  A    between atoms: _22  and  _23
REMARK    9  A    between atoms: _28  and  _29
REMARK   10  A    between atoms: _31  and  _33
REMARK   11  A    between atoms: _33  and  _34
REMARK   12  A    between atoms: _33  and  _36
REMARK   13  A    between atoms: _36  and  _37
REMARK   14  A    between atoms: _40  and  _41
REMARK   15  A    between atoms: _46  and  _48
REMARK   16  A    between atoms: _48  and  _49
REMARK   17  A    between atoms: _48  and  _51
REMARK   18  A    between atoms: _51  and  _52
REMARK   19  A    between atoms: _57  and  _59
REMARK   20  A    between atoms: _59  and  _60
REMARK   21  A    between atoms: _59  and  _62
REMARK   22  A    between atoms: _62  and  _63
REMARK   23  A    between atoms: _68  and  _70
REMARK   24  A    between atoms: _70  and  _71
REMARK   25  A    between atoms: _70  and  _73
REMARK   26  A    between atoms: _73  and  _74
REMARK   27  A    between atoms: _77  and  _79
REMARK   28  A    between atoms: _79  and  _80
REMARK   29  A    between atoms: _79  and  _82
REMARK   30  A    between atoms: _82  and  _83
REMARK   31  A    between atoms: _83  and  _84
REMARK   32  A    between atoms: _89  and  _91
REMARK   33  A    between atoms: _91  and  _92
REMARK   34  A    between atoms: _91  and  _94
REMARK   35  A    between atoms: _94  and  _95
REMARK   36  A    between atoms: _101  and  _103
REMARK   37  A    between atoms: _114  and  _117
REMARK   38  A    between atoms: _117  and  _118
REMARK   39  A    between atoms: _126  and  _127
REMARK   40  A    between atoms: _135  and  _137
REMARK   41  A    between atoms: _137  and  _138
REMARK   42  A    between atoms: _137  and  _140
REMARK   43  A    between atoms: _140  and  _141
REMARK   44  A    between atoms: _141  and  _142
REMARK   45  A    between atoms: _145  and  _147
REMARK   46  A    between atoms: _147  and  _148
REMARK   47  A    between atoms: _147  and  _150
REMARK   48  A    between atoms: _150  and  _151
REMARK   49  A    between atoms: _156  and  _158
REMARK   50  A    between atoms: _158  and  _159
REMARK   51  A    between atoms: _158  and  _161
REMARK   52  A    between atoms: _161  and  _162
REMARK   53  A    between atoms: _162  and  _163
REMARK   54  A    between atoms: _166  and  _168
REMARK   55  A    between atoms: _168  and  _169
REMARK   56  A    between atoms: _168  and  _171
REMARK   57  A    between atoms: _171  and  _172
REMARK   58  A    between atoms: _175  and  _177
REMARK   59  A    between atoms: _177  and  _178
REMARK   60  A    between atoms: _177  and  _180
REMARK   61  A    between atoms: _180  and  _181
REMARK   62  A    between atoms: _182  and  ZN_428
REMARK   63  A    between atoms: _186  and  _188
REMARK   64  A    between atoms: _188  and  _189
REMARK   65  A    between atoms: _188  and  _191
REMARK   66  A    between atoms: _191  and  _192
REMARK   67  A    between atoms: _195  and  _197
REMARK   68  A    between atoms: _197  and  _198
REMARK   69  A    between atoms: _197  and  _200
REMARK   70  A    between atoms: _203  and  _205
REMARK   71  A    between atoms: _205  and  _206
REMARK   72  A    between atoms: _205  and  _208
REMARK   73  A    between atoms: _208  and  _209
REMARK   74  A    between atoms: _214  and  _216
REMARK   75  A    between atoms: _216  and  _217
REMARK   76  A    between atoms: _216  and  _219
REMARK   77  A    between atoms: _219  and  _220
REMARK   78  A    between atoms: _226  and  _228
REMARK   79  A    between atoms: _228  and  _229
REMARK   80  A    between atoms: _231  and  _233
REMARK   81  A    between atoms: _233  and  _234
REMARK   82  A    between atoms: _233  and  _236
REMARK   83  A    between atoms: _236  and  _237
REMARK   84  A    between atoms: _237  and  _238
REMARK   85  A    between atoms: _238  and  _239
REMARK   86  A    between atoms: _239  and  _240
REMARK   87  A    between atoms: _244  and  _246
REMARK   88  A    between atoms: _246  and  _247
REMARK   89  A    between atoms: _250  and  _252
REMARK   90  A    between atoms: _252  and  _253
REMARK   91  A    between atoms: _252  and  _255
REMARK   92  A    between atoms: _258  and  _260
REMARK   93  A    between atoms: _260  and  _261
REMARK   94  A    between atoms: _260  and  _263
REMARK   95  A    between atoms: _263  and  _264
REMARK   96  A    between atoms: _264  and  _265
REMARK   97  A    between atoms: _270  and  _272
REMARK   98  A    between atoms: _272  and  _273
REMARK   99  A    between atoms: _272  and  _275
REMARK  100  A    between atoms: _275  and  _276
REMARK  101  A    between atoms: _279  and  _281
REMARK  102  A    between atoms: _281  and  _282
REMARK  103  A    between atoms: _285  and  _287
REMARK  104  A    between atoms: _287  and  _288
REMARK  105  A    between atoms: _287  and  _290
REMARK  106  A    between atoms: _293  and  _295
REMARK  107  A    between atoms: _295  and  _296
REMARK  108  A    between atoms: _295  and  _298
REMARK  109  A    between atoms: _298  and  _299
REMARK  110  A    between atoms: _302  and  _304
REMARK  111  A    between atoms: _304  and  _305
REMARK  112  A    between atoms: _304  and  _307
REMARK  113  A    between atoms: _307  and  _308
REMARK  114  A    between atoms: _310  and  _312
REMARK  115  A    between atoms: _312  and  _313
REMARK  116  A    between atoms: _312  and  _315
REMARK  117  A    between atoms: _315  and  _316
REMARK  118  A    between atoms: _319  and  _321
REMARK  119  A    between atoms: _321  and  _322
REMARK  120  A    between atoms: _321  and  _324
REMARK  121  A    between atoms: _324  and  _325
REMARK  122  A    between atoms: _328  and  _330
REMARK  123  A    between atoms: _330  and  _331
REMARK  124  A    between atoms: _330  and  _333
REMARK  125  A    between atoms: _333  and  _334
REMARK  126  A    between atoms: _338  and  _339
REMARK  127  A    between atoms: _345  and  _346
REMARK  128  A    between atoms: _351  and  _353
REMARK  129  A    between atoms: _353  and  _354
REMARK  130  A    between atoms: _353  and  _356
REMARK  131  A    between atoms: _356  and  _357
REMARK  132  A    between atoms: _360  and  _362
REMARK  133  A    between atoms: _362  and  _363
REMARK  134  A    between atoms: _362  and  _365
REMARK  135  A    between atoms: _365  and  _366
REMARK  136  A    between atoms: _369  and  _371
REMARK  137  A    between atoms: _371  and  _372
REMARK  138  A    between atoms: _371  and  _374
REMARK  139  A    between atoms: _376  and  _378
REMARK  140  A    between atoms: _378  and  _379
REMARK  141  A    between atoms: _378  and  _381
REMARK  142  A    between atoms: _384  and  _386
REMARK  143  A    between atoms: _386  and  _387
REMARK  144  A    between atoms: _386  and  _389
REMARK  145  A    between atoms: _389  and  _390
REMARK  146  A    between atoms: _400  and  _402
REMARK  147  A    between atoms: _402  and  _403
REMARK  148  A    between atoms: _402  and  _405
REMARK  149  A    between atoms: _405  and  _406
REMARK  150  A    between atoms: _411  and  _413
REMARK  151  A    between atoms: _413  and  _414
REMARK  152  A    between atoms: _413  and  _416
REMARK  153  A    between atoms: _416  and  _417
REMARK  154  A    between atoms: _417  and  _418
REMARK  155  A    between atoms: _418  and  _419
REMARK                            x       y       z     vdW  Elec       q    Type
REMARK                         _______ _______ _______ _____ _____    ______ ____
ROOT
ATOM      1  CG  TYR A   1       1.879  -6.931  11.984  0.00  0.00    -0.020 A 
ATOM      2  CD2 TYR A   1       1.426  -6.915  13.304  0.00  0.00    -0.001 A 
ATOM      3  CE2 TYR A   1       0.602  -5.898  13.766  0.00  0.00    +0.036 A 
ATOM      4  CZ  TYR A   1       0.220  -4.889  12.902  0.00  0.00    +0.134 A 
ATOM      5  CE1 TYR A   1       0.656  -4.882  11.585  0.00  0.00    +0.036 A 
ATOM      6  CD1 TYR A   1       1.482  -5.903  11.134  0.00  0.00    -0.001 A 
ENDROOT
BRANCH   4   7
ATOM      7  OH  TYR A   1      -0.621  -3.901  13.333  0.00  0.00    -0.506 OA
ATOM      8  HH  TYR A   1      -0.203  -3.421  14.092  0.00  0.00    +0.292 HD
ENDBRANCH   4   7
BRANCH   1   9
ATOM      9  CB  TYR A   1       2.794  -8.022  11.499  0.00  0.00    +0.051 C 
BRANCH   9  10
ATOM     10  CA  TYR A   1       4.266  -7.675  11.691  0.00  0.00    +0.137 C 
BRANCH  10  11
ATOM     11  N   TYR A   1       4.606  -6.511  10.894  0.00  0.00    -0.239 NA
ATOM     12  H   TYR A   1       4.542  -6.569   9.858  0.00  0.00    +0.142 HD
ENDBRANCH  10  11
BRANCH  10  13
ATOM     13  C   TYR A   1       5.136  -8.875  11.369  0.00  0.00    +0.224 C 
ATOM     14  O   TYR A   1       4.769 -10.006  11.668  0.00  0.00    -0.287 OA
ENDBRANCH  10  13
ENDBRANCH   9  10
ENDBRANCH   1   9
TORSDOF 5
REMARK  Name = ../refined-set-2016/1bn4/1bn4_pocket.pdb
REMARK  155 active torsions:
REMARK  status: ('A' for Active; 'I' for Inactive)
REMARK    1  A    between atoms: _1  and  _3
REMARK    2  A    between atoms: _3  and  _4
REMARK    3  A    between atoms: _3  and  _6
REMARK    4  A    between atoms: _6  and  _7
REMARK    5  A    between atoms: _17  and  _19
REMARK    6  A    between atoms: _19  and  _20
REMARK    7  A    between atoms: _19  and  _22
REMARK    8  A    between atoms: _22  and  _23
REMARK    9  A    between atoms: _28  and  _29
REMARK   10  A    between atoms: _31  and  _33
REMARK   11  A    between atoms: _33  and  _34
REMARK   12  A    between atoms: _33  and  _36
REMARK   13  A    between atoms: _36  and  _37
REMARK   14  A    between atoms: _40  and  _41
REMARK   15  A    between atoms: _46  and  _48
REMARK   16  A    between atoms: _48  and  _49
REMARK   17  A    between atoms: _48  and  _51
REMARK   18  A    between atoms: _51  and  _52
REMARK   19  A    between atoms: _57  and  _59
REMARK   20  A    between atoms: _59  and  _60
REMARK   21  A    between atoms: _59  and  _62
REMARK   22  A    between atoms: _62  and  _63
REMARK   23  A    between atoms: _68  and  _70
REMARK   24  A    between atoms: _70  and  _71
REMARK   25  A    between atoms: _70  and  _73
REMARK   26  A    between atoms: _73  and  _74
REMARK   27  A    between atoms: _77  and  _79
REMARK   28  A    between atoms: _79  and  _80
REMARK   29  A    between atoms: _79  and  _82
REMARK   30  A    between atoms: _82  and  _83
REMARK   31  A    between atoms: _83  and  _84
REMARK   32  A    between atoms: _89  and  _91
REMARK   33  A    between atoms: _91  and  _92
REMARK   34  A    between atoms: _91  and  _94
REMARK   35  A    between atoms: _94  and  _95
REMARK   36  A    between atoms: _101  and  _103
REMARK   37  A    between atoms: _114  and  _117
REMARK   38  A    between atoms: _117  and  _118
REMARK   39  A    between atoms: _126  and  _127
REMARK   40  A    between atoms: _135  and  _137
REMARK   41  A    between atoms: _137  and  _138
REMARK   42  A    between atoms: _137  and  _140
REMARK   43  A    between atoms: _140  and  _141
REMARK   44  A    between atoms: _141  and  _142
REMARK   45  A    between atoms: _145  and  _147
REMARK   46  A    between atoms: _147  and  _148
REMARK   47  A    between atoms: _147  and  _150
REMARK   48  A    between atoms: _150  and  _151
REMARK   49  A    between atoms: _156  and  _158
REMARK   50  A    between atoms: _158  and  _159
REMARK   51  A    between atoms: _158  and  _161
REMARK   52  A    between atoms: _161  and  _162
REMARK   53  A    between atoms: _162  and  _163
REMARK   54  A    between atoms: _166  and  _168
REMARK   55  A    between atoms: _168  and  _169
REMARK   56  A    between atoms: _168  and  _171
REMARK   57  A    between atoms: _171  and  _172
REMARK   58  A    between atoms: _175  and  _177
REMARK   59  A    between atoms: _177  and  _178
REMARK   60  A    between atoms: _177  and  _180
REMARK   61  A    between atoms: _180  and  _181
REMARK   62  A    between atoms: _182  and  ZN_428
REMARK   63  A    between atoms: _186  and  _188
REMARK   64  A    between atoms: _188  and  _189
REMARK   65  A    between atoms: _188  and  _191
REMARK   66  A    between atoms: _191  and  _192
REMARK   67  A    between atoms: _195  and  _197
REMARK   68  A    between atoms: _197  and  _198
REMARK   69  A    between atoms: _197  and  _200
REMARK   70  A    between atoms: _203  and  _205
REMARK   71  A    between atoms: _205  and  _206
REMARK   72  A    between atoms: _205  and  _208
REMARK   73  A    between atoms: _208  and  _209
REMARK   74  A    between atoms: _214  and  _216
REMARK   75  A    between atoms: _216  and  _217
REMARK   76  A    between atoms: _216  and  _219
REMARK   77  A    between atoms: _219  and  _220
REMARK   78  A    between atoms: _226  and  _228
REMARK   79  A    between atoms: _228  and  _229
REMARK   80  A    between atoms: _231  and  _233
REMARK   81  A    between atoms: _233  and  _234
REMARK   82  A    between atoms: _233  and  _236
REMARK   83  A    between atoms: _236  and  _237
REMARK   84  A    between atoms: _237  and  _238
REMARK   85  A    between atoms: _238  and  _239
REMARK   86  A    between atoms: _239  and  _240
REMARK   87  A    between atoms: _244  and  _246
REMARK   88  A    between atoms: _246  and  _247
REMARK   89  A    between atoms: _250  and  _252
REMARK   90  A    between atoms: _252  and  _253
REMARK   91  A    between atoms: _252  and  _255
REMARK   92  A    between atoms: _258  and  _260
REMARK   93  A    between atoms: _260  and  _261
REMARK   94  A    between atoms: _260  and  _263
REMARK   95  A    between atoms: _263  and  _264
REMARK   96  A    between atoms: _264  and  _265
REMARK   97  A    between atoms: _270  and  _272
REMARK   98  A    between atoms: _272  and  _273
REMARK   99  A    between atoms: _272  and  _275
REMARK  100  A    between atoms: _275  and  _276
REMARK  101  A    between atoms: _279  and  _281
REMARK  102  A    between atoms: _281  and  _282
REMARK  103  A    between atoms: _285  and  _287
REMARK  104  A    between atoms: _287  and  _288
REMARK  105  A    between atoms: _287  and  _290
REMARK  106  A    between atoms: _293  and  _295
REMARK  107  A    between atoms: _295  and  _296
REMARK  108  A    between atoms: _295  and  _298
REMARK  109  A    between atoms: _298  and  _299
REMARK  110  A    between atoms: _302  and  _304
REMARK  111  A    between atoms: _304  and  _305
REMARK  112  A    between atoms: _304  and  _307
REMARK  113  A    between atoms: _307  and  _308
REMARK  114  A    between atoms: _310  and  _312
REMARK  115  A    between atoms: _312  and  _313
REMARK  116  A    between atoms: _312  and  _315
REMARK  117  A    between atoms: _315  and  _316
REMARK  118  A    between atoms: _319  and  _321
REMARK  119  A    between atoms: _321  and  _322
REMARK  120  A    between atoms: _321  and  _324
REMARK  121  A    between atoms: _324  and  _325
REMARK  122  A    between atoms: _328  and  _330
REMARK  123  A    between atoms: _330  and  _331
REMARK  124  A    between atoms: _330  and  _333
REMARK  125  A    between atoms: _333  and  _334
REMARK  126  A    between atoms: _338  and  _339
REMARK  127  A    between atoms: _345  and  _346
REMARK  128  A    between atoms: _351  and  _353
REMARK  129  A    between atoms: _353  and  _354
REMARK  130  A    between atoms: _353  and  _356
REMARK  131  A    between atoms: _356  and  _357
REMARK  132  A    between atoms: _360  and  _362
REMARK  133  A    between atoms: _362  and  _363
REMARK  134  A    between atoms: _362  and  _365
REMARK  135  A    between atoms: _365  and  _366
REMARK  136  A    between atoms: _369  and  _371
REMARK  137  A    between atoms: _371  and  _372
REMARK  138  A    between atoms: _371  and  _374
REMARK  139  A    between atoms: _376  and  _378
REMARK  140  A    between atoms: _378  and  _379
REMARK  141  A    between atoms: _378  and  _381
REMARK  142  A    between atoms: _384  and  _386
REMARK  143  A    between atoms: _386  and  _387
REMARK  144  A    between atoms: _386  and  _389
REMARK  145  A    between atoms: _389  and  _390
REMARK  146  A    between atoms: _400  and  _402
REMARK  147  A    between atoms: _402  and  _403
REMARK  148  A    between atoms: _402  and  _405
REMARK  149  A    between atoms: _405  and  _406
REMARK  150  A    between atoms: _411  and  _413
REMARK  151  A    between atoms: _413  and  _414
REMARK  152  A    between atoms: _413  and  _416
REMARK  153  A    between atoms: _416  and  _417
REMARK  154  A    between atoms: _417  and  _418
REMARK  155  A    between atoms: _418  and  _419
REMARK                            x       y       z     vdW  Elec       q    Type
REMARK                         _______ _______ _______ _____ _____    ______ ____
ROOT
ATOM      1  C   SER A   1      -2.453  -3.211  23.463  0.00  0.00    +0.244 C 
ATOM      2  N   PRO A   2      -3.091  -4.353  23.192  0.00  0.00    -0.273 N 
ATOM      3  CA  PRO A   2      -4.308  -4.826  23.859  0.00  0.00    +0.140 C 
ATOM      4  CB  PRO A   2      -4.882  -5.786  22.829  0.00  0.00    +0.030 C 
ATOM      5  CG  PRO A   2      -3.624  -6.454  22.314  0.00  0.00    +0.024 C 
ATOM      6  CD  PRO A   2      -2.662  -5.292  22.140  0.00  0.00    +0.094 C 
ATOM      7  O   SER A   1      -1.448  -2.866  22.836  0.00  0.00    -0.273 OA
ENDROOT
BRANCH   3   8
ATOM      8  C   PRO A   2      -3.956  -5.558  25.156  0.00  0.00    +0.227 C 
ATOM      9  O   PRO A   2      -2.779  -5.670  25.508  0.00  0.00    -0.286 OA
ENDBRANCH   3   8
BRANCH   1  10
ATOM     10  CA  SER A   1      -3.044  -2.321  24.565  0.00  0.00    +0.175 C 
BRANCH  10  11
ATOM     11  N   SER A   1      -2.014  -1.405  25.035  0.00  0.00    -0.236 NA
ATOM     12  H   SER A   1      -1.589  -0.750  24.348  0.00  0.00    +0.142 HD
ENDBRANCH  10  11
BRANCH  10  13
ATOM     13  CB  SER A   1      -4.237  -1.531  24.012  0.00  0.00    +0.163 C 
BRANCH  13  14
ATOM     14  OG  SER A   1      -4.833  -0.745  25.026  0.00  0.00    -0.380 OA
ATOM     15  H   SER A   1      -5.151  -1.335  25.755  0.00  0.00    +0.211 HD
ENDBRANCH  13  14
ENDBRANCH  10  13
ENDBRANCH   1  10
TORSDOF 5
REMARK  Name = ../refined-set-2016/1bn4/1bn4_pocket.pdb
REMARK  155 active torsions:
REMARK  status: ('A' for Active; 'I' for Inactive)
REMARK    1  A    between atoms: _1  and  _3
REMARK    2  A    between atoms: _3  and  _4
REMARK    3  A    between atoms: _3  and  _6
REMARK    4  A    between atoms: _6  and  _7
REMARK    5  A    between atoms: _17  and  _19
REMARK    6  A    between atoms: _19  and  _20
REMARK    7  A    between atoms: _19  and  _22
REMARK    8  A    between atoms: _22  and  _23
REMARK    9  A    between atoms: _28  and  _29
REMARK   10  A    between atoms: _31  and  _33
REMARK   11  A    between atoms: _33  and  _34
REMARK   12  A    between atoms: _33  and  _36
REMARK   13  A    between atoms: _36  and  _37
REMARK   14  A    between atoms: _40  and  _41
REMARK   15  A    between atoms: _46  and  _48
REMARK   16  A    between atoms: _48  and  _49
REMARK   17  A    between atoms: _48  and  _51
REMARK   18  A    between atoms: _51  and  _52
REMARK   19  A    between atoms: _57  and  _59
REMARK   20  A    between atoms: _59  and  _60
REMARK   21  A    between atoms: _59  and  _62
REMARK   22  A    between atoms: _62  and  _63
REMARK   23  A    between atoms: _68  and  _70
REMARK   24  A    between atoms: _70  and  _71
REMARK   25  A    between atoms: _70  and  _73
REMARK   26  A    between atoms: _73  and  _74
REMARK   27  A    between atoms: _77  and  _79
REMARK   28  A    between atoms: _79  and  _80
REMARK   29  A    between atoms: _79  and  _82
REMARK   30  A    between atoms: _82  and  _83
REMARK   31  A    between atoms: _83  and  _84
REMARK   32  A    between atoms: _89  and  _91
REMARK   33  A    between atoms: _91  and  _92
REMARK   34  A    between atoms: _91  and  _94
REMARK   35  A    between atoms: _94  and  _95
REMARK   36  A    between atoms: _101  and  _103
REMARK   37  A    between atoms: _114  and  _117
REMARK   38  A    between atoms: _117  and  _118
REMARK   39  A    between atoms: _126  and  _127
REMARK   40  A    between atoms: _135  and  _137
REMARK   41  A    between atoms: _137  and  _138
REMARK   42  A    between atoms: _137  and  _140
REMARK   43  A    between atoms: _140  and  _141
REMARK   44  A    between atoms: _141  and  _142
REMARK   45  A    between atoms: _145  and  _147
REMARK   46  A    between atoms: _147  and  _148
REMARK   47  A    between atoms: _147  and  _150
REMARK   48  A    between atoms: _150  and  _151
REMARK   49  A    between atoms: _156  and  _158
REMARK   50  A    between atoms: _158  and  _159
REMARK   51  A    between atoms: _158  and  _161
REMARK   52  A    between atoms: _161  and  _162
REMARK   53  A    between atoms: _162  and  _163
REMARK   54  A    between atoms: _166  and  _168
REMARK   55  A    between atoms: _168  and  _169
REMARK   56  A    between atoms: _168  and  _171
REMARK   57  A    between atoms: _171  and  _172
REMARK   58  A    between atoms: _175  and  _177
REMARK   59  A    between atoms: _177  and  _178
REMARK   60  A    between atoms: _177  and  _180
REMARK   61  A    between atoms: _180  and  _181
REMARK   62  A    between atoms: _182  and  ZN_428
REMARK   63  A    between atoms: _186  and  _188
REMARK   64  A    between atoms: _188  and  _189
REMARK   65  A    between atoms: _188  and  _191
REMARK   66  A    between atoms: _191  and  _192
REMARK   67  A    between atoms: _195  and  _197
REMARK   68  A    between atoms: _197  and  _198
REMARK   69  A    between atoms: _197  and  _200
REMARK   70  A    between atoms: _203  and  _205
REMARK   71  A    between atoms: _205  and  _206
REMARK   72  A    between atoms: _205  and  _208
REMARK   73  A    between atoms: _208  and  _209
REMARK   74  A    between atoms: _214  and  _216
REMARK   75  A    between atoms: _216  and  _217
REMARK   76  A    between atoms: _216  and  _219
REMARK   77  A    between atoms: _219  and  _220
REMARK   78  A    between atoms: _226  and  _228
REMARK   79  A    between atoms: _228  and  _229
REMARK   80  A    between atoms: _231  and  _233
REMARK   81  A    between atoms: _233  and  _234
REMARK   82  A    between atoms: _233  and  _236
REMARK   83  A    between atoms: _236  and  _237
REMARK   84  A    between atoms: _237  and  _238
REMARK   85  A    between atoms: _238  and  _239
REMARK   86  A    between atoms: _239  and  _240
REMARK   87  A    between atoms: _244  and  _246
REMARK   88  A    between atoms: _246  and  _247
REMARK   89  A    between atoms: _250  and  _252
REMARK   90  A    between atoms: _252  and  _253
REMARK   91  A    between atoms: _252  and  _255
REMARK   92  A    between atoms: _258  and  _260
REMARK   93  A    between atoms: _260  and  _261
REMARK   94  A    between atoms: _260  and  _263
REMARK   95  A    between atoms: _263  and  _264
REMARK   96  A    between atoms: _264  and  _265
REMARK   97  A    between atoms: _270  and  _272
REMARK   98  A    between atoms: _272  and  _273
REMARK   99  A    between atoms: _272  and  _275
REMARK  100  A    between atoms: _275  and  _276
REMARK  101  A    between atoms: _279  and  _281
REMARK  102  A    between atoms: _281  and  _282
REMARK  103  A    between atoms: _285  and  _287
REMARK  104  A    between atoms: _287  and  _288
REMARK  105  A    between atoms: _287  and  _290
REMARK  106  A    between atoms: _293  and  _295
REMARK  107  A    between atoms: _295  and  _296
REMARK  108  A    between atoms: _295  and  _298
REMARK  109  A    between atoms: _298  and  _299
REMARK  110  A    between atoms: _302  and  _304
REMARK  111  A    between atoms: _304  and  _305
REMARK  112  A    between atoms: _304  and  _307
REMARK  113  A    between atoms: _307  and  _308
REMARK  114  A    between atoms: _310  and  _312
REMARK  115  A    between atoms: _312  and  _313
REMARK  116  A    between atoms: _312  and  _315
REMARK  117  A    between atoms: _315  and  _316
REMARK  118  A    between atoms: _319  and  _321
REMARK  119  A    between atoms: _321  and  _322
REMARK  120  A    between atoms: _321  and  _324
REMARK  121  A    between atoms: _324  and  _325
REMARK  122  A    between atoms: _328  and  _330
REMARK  123  A    between atoms: _330  and  _331
REMARK  124  A    between atoms: _330  and  _333
REMARK  125  A    between atoms: _333  and  _334
REMARK  126  A    between atoms: _338  and  _339
REMARK  127  A    between atoms: _345  and  _346
REMARK  128  A    between atoms: _351  and  _353
REMARK  129  A    between atoms: _353  and  _354
REMARK  130  A    between atoms: _353  and  _356
REMARK  131  A    between atoms: _356  and  _357
REMARK  132  A    between atoms: _360  and  _362
REMARK  133  A    between atoms: _362  and  _363
REMARK  134  A    between atoms: _362  and  _365
REMARK  135  A    between atoms: _365  and  _366
REMARK  136  A    between atoms: _369  and  _371
REMARK  137  A    between atoms: _371  and  _372
REMARK  138  A    between atoms: _371  and  _374
REMARK  139  A    between atoms: _376  and  _378
REMARK  140  A    between atoms: _378  and  _379
REMARK  141  A    between atoms: _378  and  _381
REMARK  142  A    between atoms: _384  and  _386
REMARK  143  A    between atoms: _386  and  _387
REMARK  144  A    between atoms: _386  and  _389
REMARK  145  A    between atoms: _389  and  _390
REMARK  146  A    between atoms: _400  and  _402
REMARK  147  A    between atoms: _402  and  _403
REMARK  148  A    between atoms: _402  and  _405
REMARK  149  A    between atoms: _405  and  _406
REMARK  150  A    between atoms: _411  and  _413
REMARK  151  A    between atoms: _413  and  _414
REMARK  152  A    between atoms: _413  and  _416
REMARK  153  A    between atoms: _416  and  _417
REMARK  154  A    between atoms: _417  and  _418
REMARK  155  A    between atoms: _418  and  _419
REMARK                            x       y       z     vdW  Elec       q    Type
REMARK                         _______ _______ _______ _____ _____    ______ ____
ROOT
ATOM      1  CB  ASN A   1      -2.735   2.046   5.346  0.00  0.00    +0.110 C 
ENDROOT
BRANCH   1   2
ATOM      2  CG  ASN A   1      -3.052   1.183   6.557  0.00  0.00    +0.221 C 
ATOM      3  ND2 ASN A   1      -3.661   1.790   7.562  0.00  0.00    -0.329 N 
ATOM      4 HD21 ASN A   1      -3.906   1.256   8.420  0.00  0.00    +0.145 HD
ATOM      5 HD22 ASN A   1      -3.895   2.801   7.494  0.00  0.00    +0.145 HD
ATOM      6  OD1 ASN A   1      -2.755  -0.010   6.590  0.00  0.00    -0.275 OA
ENDBRANCH   1   2
BRANCH   1   7
ATOM      7  CA  ASN A   1      -2.361   1.221   4.109  0.00  0.00    +0.142 C 
BRANCH   7   8
ATOM      8  N   ASN A   1      -3.485   0.376   3.676  0.00  0.00    -0.239 NA
ATOM      9  H   ASN A   1      -4.019  -0.165   4.386  0.00  0.00    +0.142 HD
ENDBRANCH   7   8
BRANCH   7  10
ATOM     10  C   ASN A   1      -1.084   0.427   4.383  0.00  0.00    +0.225 C 
ATOM     11  O   ASN A   1      -0.153   0.933   5.003  0.00  0.00    -0.287 OA
ENDBRANCH   7  10
ENDBRANCH   1   7
TORSDOF 4
REMARK  Name = ../refined-set-2016/1bn4/1bn4_pocket.pdb
REMARK  155 active torsions:
REMARK  status: ('A' for Active; 'I' for Inactive)
REMARK    1  A    between atoms: _1  and  _3
REMARK    2  A    between atoms: _3  and  _4
REMARK    3  A    between atoms: _3  and  _6
REMARK    4  A    between atoms: _6  and  _7
REMARK    5  A    between atoms: _17  and  _19
REMARK    6  A    between atoms: _19  and  _20
REMARK    7  A    between atoms: _19  and  _22
REMARK    8  A    between atoms: _22  and  _23
REMARK    9  A    between atoms: _28  and  _29
REMARK   10  A    between atoms: _31  and  _33
REMARK   11  A    between atoms: _33  and  _34
REMARK   12  A    between atoms: _33  and  _36
REMARK   13  A    between atoms: _36  and  _37
REMARK   14  A    between atoms: _40  and  _41
REMARK   15  A    between atoms: _46  and  _48
REMARK   16  A    between atoms: _48  and  _49
REMARK   17  A    between atoms: _48  and  _51
REMARK   18  A    between atoms: _51  and  _52
REMARK   19  A    between atoms: _57  and  _59
REMARK   20  A    between atoms: _59  and  _60
REMARK   21  A    between atoms: _59  and  _62
REMARK   22  A    between atoms: _62  and  _63
REMARK   23  A    between atoms: _68  and  _70
REMARK   24  A    between atoms: _70  and  _71
REMARK   25  A    between atoms: _70  and  _73
REMARK   26  A    between atoms: _73  and  _74
REMARK   27  A    between atoms: _77  and  _79
REMARK   28  A    between atoms: _79  and  _80
REMARK   29  A    between atoms: _79  and  _82
REMARK   30  A    between atoms: _82  and  _83
REMARK   31  A    between atoms: _83  and  _84
REMARK   32  A    between atoms: _89  and  _91
REMARK   33  A    between atoms: _91  and  _92
REMARK   34  A    between atoms: _91  and  _94
REMARK   35  A    between atoms: _94  and  _95
REMARK   36  A    between atoms: _101  and  _103
REMARK   37  A    between atoms: _114  and  _117
REMARK   38  A    between atoms: _117  and  _118
REMARK   39  A    between atoms: _126  and  _127
REMARK   40  A    between atoms: _135  and  _137
REMARK   41  A    between atoms: _137  and  _138
REMARK   42  A    between atoms: _137  and  _140
REMARK   43  A    between atoms: _140  and  _141
REMARK   44  A    between atoms: _141  and  _142
REMARK   45  A    between atoms: _145  and  _147
REMARK   46  A    between atoms: _147  and  _148
REMARK   47  A    between atoms: _147  and  _150
REMARK   48  A    between atoms: _150  and  _151
REMARK   49  A    between atoms: _156  and  _158
REMARK   50  A    between atoms: _158  and  _159
REMARK   51  A    between atoms: _158  and  _161
REMARK   52  A    between atoms: _161  and  _162
REMARK   53  A    between atoms: _162  and  _163
REMARK   54  A    between atoms: _166  and  _168
REMARK   55  A    between atoms: _168  and  _169
REMARK   56  A    between atoms: _168  and  _171
REMARK   57  A    between atoms: _171  and  _172
REMARK   58  A    between atoms: _175  and  _177
REMARK   59  A    between atoms: _177  and  _178
REMARK   60  A    between atoms: _177  and  _180
REMARK   61  A    between atoms: _180  and  _181
REMARK   62  A    between atoms: _182  and  ZN_428
REMARK   63  A    between atoms: _186  and  _188
REMARK   64  A    between atoms: _188  and  _189
REMARK   65  A    between atoms: _188  and  _191
REMARK   66  A    between atoms: _191  and  _192
REMARK   67  A    between atoms: _195  and  _197
REMARK   68  A    between atoms: _197  and  _198
REMARK   69  A    between atoms: _197  and  _200
REMARK   70  A    between atoms: _203  and  _205
REMARK   71  A    between atoms: _205  and  _206
REMARK   72  A    between atoms: _205  and  _208
REMARK   73  A    between atoms: _208  and  _209
REMARK   74  A    between atoms: _214  and  _216
REMARK   75  A    between atoms: _216  and  _217
REMARK   76  A    between atoms: _216  and  _219
REMARK   77  A    between atoms: _219  and  _220
REMARK   78  A    between atoms: _226  and  _228
REMARK   79  A    between atoms: _228  and  _229
REMARK   80  A    between atoms: _231  and  _233
REMARK   81  A    between atoms: _233  and  _234
REMARK   82  A    between atoms: _233  and  _236
REMARK   83  A    between atoms: _236  and  _237
REMARK   84  A    between atoms: _237  and  _238
REMARK   85  A    between atoms: _238  and  _239
REMARK   86  A    between atoms: _239  and  _240
REMARK   87  A    between atoms: _244  and  _246
REMARK   88  A    between atoms: _246  and  _247
REMARK   89  A    between atoms: _250  and  _252
REMARK   90  A    between atoms: _252  and  _253
REMARK   91  A    between atoms: _252  and  _255
REMARK   92  A    between atoms: _258  and  _260
REMARK   93  A    between atoms: _260  and  _261
REMARK   94  A    between atoms: _260  and  _263
REMARK   95  A    between atoms: _263  and  _264
REMARK   96  A    between atoms: _264  and  _265
REMARK   97  A    between atoms: _270  and  _272
REMARK   98  A    between atoms: _272  and  _273
REMARK   99  A    between atoms: _272  and  _275
REMARK  100  A    between atoms: _275  and  _276
REMARK  101  A    between atoms: _279  and  _281
REMARK  102  A    between atoms: _281  and  _282
REMARK  103  A    between atoms: _285  and  _287
REMARK  104  A    between atoms: _287  and  _288
REMARK  105  A    between atoms: _287  and  _290
REMARK  106  A    between atoms: _293  and  _295
REMARK  107  A    between atoms: _295  and  _296
REMARK  108  A    between atoms: _295  and  _298
REMARK  109  A    between atoms: _298  and  _299
REMARK  110  A    between atoms: _302  and  _304
REMARK  111  A    between atoms: _304  and  _305
REMARK  112  A    between atoms: _304  and  _307
REMARK  113  A    between atoms: _307  and  _308
REMARK  114  A    between atoms: _310  and  _312
REMARK  115  A    between atoms: _312  and  _313
REMARK  116  A    between atoms: _312  and  _315
REMARK  117  A    between atoms: _315  and  _316
REMARK  118  A    between atoms: _319  and  _321
REMARK  119  A    between atoms: _321  and  _322
REMARK  120  A    between atoms: _321  and  _324
REMARK  121  A    between atoms: _324  and  _325
REMARK  122  A    between atoms: _328  and  _330
REMARK  123  A    between atoms: _330  and  _331
REMARK  124  A    between atoms: _330  and  _333
REMARK  125  A    between atoms: _333  and  _334
REMARK  126  A    between atoms: _338  and  _339
REMARK  127  A    between atoms: _345  and  _346
REMARK  128  A    between atoms: _351  and  _353
REMARK  129  A    between atoms: _353  and  _354
REMARK  130  A    between atoms: _353  and  _356
REMARK  131  A    between atoms: _356  and  _357
REMARK  132  A    between atoms: _360  and  _362
REMARK  133  A    between atoms: _362  and  _363
REMARK  134  A    between atoms: _362  and  _365
REMARK  135  A    between atoms: _365  and  _366
REMARK  136  A    between atoms: _369  and  _371
REMARK  137  A    between atoms: _371  and  _372
REMARK  138  A    between atoms: _371  and  _374
REMARK  139  A    between atoms: _376  and  _378
REMARK  140  A    between atoms: _378  and  _379
REMARK  141  A    between atoms: _378  and  _381
REMARK  142  A    between atoms: _384  and  _386
REMARK  143  A    between atoms: _386  and  _387
REMARK  144  A    between atoms: _386  and  _389
REMARK  145  A    between atoms: _389  and  _390
REMARK  146  A    between atoms: _400  and  _402
REMARK  147  A    between atoms: _402  and  _403
REMARK  148  A    between atoms: _402  and  _405
REMARK  149  A    between atoms: _405  and  _406
REMARK  150  A    between atoms: _411  and  _413
REMARK  151  A    between atoms: _413  and  _414
REMARK  152  A    between atoms: _413  and  _416
REMARK  153  A    between atoms: _416  and  _417
REMARK  154  A    between atoms: _417  and  _418
REMARK  155  A    between atoms: _418  and  _419
REMARK                            x       y       z     vdW  Elec       q    Type
REMARK                         _______ _______ _______ _____ _____    ______ ____
ROOT
ATOM      1  CB  ASN A   1      -8.520   2.235   7.162  0.00  0.00    +0.110 C 
ENDROOT
BRANCH   1   2
ATOM      2  CG  ASN A   1      -7.437   1.710   8.085  0.00  0.00    +0.221 C 
ATOM      3  OD1 ASN A   1      -7.350   2.117   9.231  0.00  0.00    -0.275 OA
ATOM      4  ND2 ASN A   1      -6.589   0.835   7.577  0.00  0.00    -0.329 N 
ATOM      5 HD21 ASN A   1      -5.810   0.467   8.160  0.00  0.00    +0.145 HD
ATOM      6 HD22 ASN A   1      -6.700   0.514   6.594  0.00  0.00    +0.145 HD
ENDBRANCH   1   2
BRANCH   1   7
ATOM      7  CA  ASN A   1      -9.426   1.127   6.621  0.00  0.00    +0.142 C 
BRANCH   7   8
ATOM      8  N   ASN A   1      -8.643   0.224   5.812  0.00  0.00    -0.239 NA
ATOM      9  H   ASN A   1      -8.175   0.584   4.956  0.00  0.00    +0.142 HD
ENDBRANCH   7   8
BRANCH   7  10
ATOM     10  C   ASN A   1     -10.544   1.772   5.826  0.00  0.00    +0.225 C 
ATOM     11  O   ASN A   1     -10.347   2.170   4.674  0.00  0.00    -0.287 OA
ENDBRANCH   7  10
ENDBRANCH   1   7
TORSDOF 4
REMARK  Name = ../refined-set-2016/1bn4/1bn4_pocket.pdb
REMARK  155 active torsions:
REMARK  status: ('A' for Active; 'I' for Inactive)
REMARK    1  A    between atoms: _1  and  _3
REMARK    2  A    between atoms: _3  and  _4
REMARK    3  A    between atoms: _3  and  _6
REMARK    4  A    between atoms: _6  and  _7
REMARK    5  A    between atoms: _17  and  _19
REMARK    6  A    between atoms: _19  and  _20
REMARK    7  A    between atoms: _19  and  _22
REMARK    8  A    between atoms: _22  and  _23
REMARK    9  A    between atoms: _28  and  _29
REMARK   10  A    between atoms: _31  and  _33
REMARK   11  A    between atoms: _33  and  _34
REMARK   12  A    between atoms: _33  and  _36
REMARK   13  A    between atoms: _36  and  _37
REMARK   14  A    between atoms: _40  and  _41
REMARK   15  A    between atoms: _46  and  _48
REMARK   16  A    between atoms: _48  and  _49
REMARK   17  A    between atoms: _48  and  _51
REMARK   18  A    between atoms: _51  and  _52
REMARK   19  A    between atoms: _57  and  _59
REMARK   20  A    between atoms: _59  and  _60
REMARK   21  A    between atoms: _59  and  _62
REMARK   22  A    between atoms: _62  and  _63
REMARK   23  A    between atoms: _68  and  _70
REMARK   24  A    between atoms: _70  and  _71
REMARK   25  A    between atoms: _70  and  _73
REMARK   26  A    between atoms: _73  and  _74
REMARK   27  A    between atoms: _77  and  _79
REMARK   28  A    between atoms: _79  and  _80
REMARK   29  A    between atoms: _79  and  _82
REMARK   30  A    between atoms: _82  and  _83
REMARK   31  A    between atoms: _83  and  _84
REMARK   32  A    between atoms: _89  and  _91
REMARK   33  A    between atoms: _91  and  _92
REMARK   34  A    between atoms: _91  and  _94
REMARK   35  A    between atoms: _94  and  _95
REMARK   36  A    between atoms: _101  and  _103
REMARK   37  A    between atoms: _114  and  _117
REMARK   38  A    between atoms: _117  and  _118
REMARK   39  A    between atoms: _126  and  _127
REMARK   40  A    between atoms: _135  and  _137
REMARK   41  A    between atoms: _137  and  _138
REMARK   42  A    between atoms: _137  and  _140
REMARK   43  A    between atoms: _140  and  _141
REMARK   44  A    between atoms: _141  and  _142
REMARK   45  A    between atoms: _145  and  _147
REMARK   46  A    between atoms: _147  and  _148
REMARK   47  A    between atoms: _147  and  _150
REMARK   48  A    between atoms: _150  and  _151
REMARK   49  A    between atoms: _156  and  _158
REMARK   50  A    between atoms: _158  and  _159
REMARK   51  A    between atoms: _158  and  _161
REMARK   52  A    between atoms: _161  and  _162
REMARK   53  A    between atoms: _162  and  _163
REMARK   54  A    between atoms: _166  and  _168
REMARK   55  A    between atoms: _168  and  _169
REMARK   56  A    between atoms: _168  and  _171
REMARK   57  A    between atoms: _171  and  _172
REMARK   58  A    between atoms: _175  and  _177
REMARK   59  A    between atoms: _177  and  _178
REMARK   60  A    between atoms: _177  and  _180
REMARK   61  A    between atoms: _180  and  _181
REMARK   62  A    between atoms: _182  and  ZN_428
REMARK   63  A    between atoms: _186  and  _188
REMARK   64  A    between atoms: _188  and  _189
REMARK   65  A    between atoms: _188  and  _191
REMARK   66  A    between atoms: _191  and  _192
REMARK   67  A    between atoms: _195  and  _197
REMARK   68  A    between atoms: _197  and  _198
REMARK   69  A    between atoms: _197  and  _200
REMARK   70  A    between atoms: _203  and  _205
REMARK   71  A    between atoms: _205  and  _206
REMARK   72  A    between atoms: _205  and  _208
REMARK   73  A    between atoms: _208  and  _209
REMARK   74  A    between atoms: _214  and  _216
REMARK   75  A    between atoms: _216  and  _217
REMARK   76  A    between atoms: _216  and  _219
REMARK   77  A    between atoms: _219  and  _220
REMARK   78  A    between atoms: _226  and  _228
REMARK   79  A    between atoms: _228  and  _229
REMARK   80  A    between atoms: _231  and  _233
REMARK   81  A    between atoms: _233  and  _234
REMARK   82  A    between atoms: _233  and  _236
REMARK   83  A    between atoms: _236  and  _237
REMARK   84  A    between atoms: _237  and  _238
REMARK   85  A    between atoms: _238  and  _239
REMARK   86  A    between atoms: _239  and  _240
REMARK   87  A    between atoms: _244  and  _246
REMARK   88  A    between atoms: _246  and  _247
REMARK   89  A    between atoms: _250  and  _252
REMARK   90  A    between atoms: _252  and  _253
REMARK   91  A    between atoms: _252  and  _255
REMARK   92  A    between atoms: _258  and  _260
REMARK   93  A    between atoms: _260  and  _261
REMARK   94  A    between atoms: _260  and  _263
REMARK   95  A    between atoms: _263  and  _264
REMARK   96  A    between atoms: _264  and  _265
REMARK   97  A    between atoms: _270  and  _272
REMARK   98  A    between atoms: _272  and  _273
REMARK   99  A    between atoms: _272  and  _275
REMARK  100  A    between atoms: _275  and  _276
REMARK  101  A    between atoms: _279  and  _281
REMARK  102  A    between atoms: _281  and  _282
REMARK  103  A    between atoms: _285  and  _287
REMARK  104  A    between atoms: _287  and  _288
REMARK  105  A    between atoms: _287  and  _290
REMARK  106  A    between atoms: _293  and  _295
REMARK  107  A    between atoms: _295  and  _296
REMARK  108  A    between atoms: _295  and  _298
REMARK  109  A    between atoms: _298  and  _299
REMARK  110  A    between atoms: _302  and  _304
REMARK  111  A    between atoms: _304  and  _305
REMARK  112  A    between atoms: _304  and  _307
REMARK  113  A    between atoms: _307  and  _308
REMARK  114  A    between atoms: _310  and  _312
REMARK  115  A    between atoms: _312  and  _313
REMARK  116  A    between atoms: _312  and  _315
REMARK  117  A    between atoms: _315  and  _316
REMARK  118  A    between atoms: _319  and  _321
REMARK  119  A    between atoms: _321  and  _322
REMARK  120  A    between atoms: _321  and  _324
REMARK  121  A    between atoms: _324  and  _325
REMARK  122  A    between atoms: _328  and  _330
REMARK  123  A    between atoms: _330  and  _331
REMARK  124  A    between atoms: _330  and  _333
REMARK  125  A    between atoms: _333  and  _334
REMARK  126  A    between atoms: _338  and  _339
REMARK  127  A    between atoms: _345  and  _346
REMARK  128  A    between atoms: _351  and  _353
REMARK  129  A    between atoms: _353  and  _354
REMARK  130  A    between atoms: _353  and  _356
REMARK  131  A    between atoms: _356  and  _357
REMARK  132  A    between atoms: _360  and  _362
REMARK  133  A    between atoms: _362  and  _363
REMARK  134  A    between atoms: _362  and  _365
REMARK  135  A    between atoms: _365  and  _366
REMARK  136  A    between atoms: _369  and  _371
REMARK  137  A    between atoms: _371  and  _372
REMARK  138  A    between atoms: _371  and  _374
REMARK  139  A    between atoms: _376  and  _378
REMARK  140  A    between atoms: _378  and  _379
REMARK  141  A    between atoms: _378  and  _381
REMARK  142  A    between atoms: _384  and  _386
REMARK  143  A    between atoms: _386  and  _387
REMARK  144  A    between atoms: _386  and  _389
REMARK  145  A    between atoms: _389  and  _390
REMARK  146  A    between atoms: _400  and  _402
REMARK  147  A    between atoms: _402  and  _403
REMARK  148  A    between atoms: _402  and  _405
REMARK  149  A    between atoms: _405  and  _406
REMARK  150  A    between atoms: _411  and  _413
REMARK  151  A    between atoms: _413  and  _414
REMARK  152  A    between atoms: _413  and  _416
REMARK  153  A    between atoms: _416  and  _417
REMARK  154  A    between atoms: _417  and  _418
REMARK  155  A    between atoms: _418  and  _419
REMARK                            x       y       z     vdW  Elec       q    Type
REMARK                         _______ _______ _______ _____ _____    ______ ____
ROOT
ATOM      1  C   UNK A   4     -10.283  -1.347  10.500  0.00  0.00    +0.000 C 
ATOM      2  C   UNK A   4     -10.410  -2.665  11.230  0.00  0.00    +0.000 C 
ATOM      3  O   UNK A   4     -11.112  -2.774  12.245  0.00  0.00    +0.000 OA
ATOM      4  N   VAL A   5      -9.730  -3.669  10.704  0.00  0.00    +0.000 N 
ATOM      5  CA  VAL A   5      -9.768  -4.995  11.273  0.00  0.00    +0.000 C 
ATOM      6  C   VAL A   5      -8.357  -5.488  11.478  0.00  0.00    +0.000 C 
ATOM      7  N   UNK A   6      -8.244  -6.483  12.339  0.00  0.00    +0.000 N 
ATOM      8  H   UNK A   6      -9.100  -6.798  12.838  0.00  0.00    +0.000 HD
ATOM      9  C   UNK A   6      -6.998  -7.162  12.629  0.00  0.00    +0.000 C 
ATOM     10  C   UNK A   6      -6.542  -6.905  14.068  0.00  0.00    +0.000 C 
ATOM     11  C   UNK A   6      -6.161  -5.462  14.305  0.00  0.00    +0.000 A 
ATOM     12  C   UNK A   6      -6.854  -4.306  14.656  0.00  0.00    +0.000 A 
ATOM     13  N   UNK A   6      -5.948  -3.286  14.706  0.00  0.00    +0.000 N 
ATOM     14 ZN   UNK A   6      -6.804  -1.648  15.434  0.00  0.00    +0.000 Zn
ATOM     15  N   UNK A   4      -7.558  -0.340  14.031  0.00  0.00    +0.000 N 
ATOM     16  C   UNK A   4      -8.033   0.864  13.634  0.00  0.00    +0.000 A 
ATOM     17  N   UNK A   4      -8.510   0.715  12.371  0.00  0.00    +0.000 NA
ATOM     18  C   UNK A   4      -8.356  -0.538  11.946  0.00  0.00    +0.000 A 
ATOM     19  C   UNK A   4      -7.741  -1.237  13.009  0.00  0.00    +0.000 A 
ATOM     20  C   UNK A   6      -4.734  -3.781  14.395  0.00  0.00    +0.000 A 
ATOM     21  N   UNK A   6      -4.889  -5.104  14.156  0.00  0.00    +0.000 NA
ATOM     22  O   VAL A   5      -7.408  -4.979  10.885  0.00  0.00    +0.000 OA
ATOM     23  H   VAL A   5      -9.152  -3.499   9.857  0.00  0.00    +0.000 HD
ATOM     24  C   UNK A   4      -8.825  -0.879  10.540  0.00  0.00    +0.000 C 
ENDROOT
BRANCH  14  25
ATOM     25  N   UNK A   6      -8.390  -2.279  16.642  0.00  0.00    +0.000 N 
ATOM     26  C   UNK A   6      -7.941  -3.236  17.492  0.00  0.00    +0.000 A 
ATOM     27  N   UNK A   6      -9.007  -3.707  18.167  0.00  0.00    +0.000 NA
ATOM     28  C   UNK A   6     -10.119  -3.047  17.738  0.00  0.00    +0.000 A 
ATOM     29  C   UNK A   6      -9.708  -2.131  16.760  0.00  0.00    +0.000 A 
BRANCH  29  30
ATOM     30  C   UNK A   6     -10.386  -1.092  15.905  0.00  0.00    +0.000 C 
BRANCH  30  31
ATOM     31  C   UNK A   6     -11.881  -1.341  15.755  0.00  0.00    +0.000 C 
BRANCH  31  32
ATOM     32  C   UNK A   6     -12.499  -0.126  15.101  0.00  0.00    +0.000 C 
ATOM     33  N   UNK A   4     -13.483   0.464  15.771  0.00  0.00    +0.000 N 
ATOM     34  H   UNK A   4     -13.805   0.044  16.666  0.00  0.00    +0.000 HD
ATOM     35  O   UNK A   6     -12.137   0.228  13.976  0.00  0.00    +0.000 OA
BRANCH  33  36
ATOM     36  C   UNK A   4     -14.124   1.680  15.291  0.00  0.00    +0.000 C 
BRANCH  36  37
ATOM     37  C   UNK A   4     -13.467   2.804  16.080  0.00  0.00    +0.000 C 
ATOM     38  O   UNK A   4     -13.651   2.912  17.302  0.00  0.00    +0.000 OA
ATOM     39  N   VAL A   5     -12.656   3.600  15.385  0.00  0.00    +0.000 N 
ATOM     40  H   VAL A   5     -12.556   3.438  14.363  0.00  0.00    +0.000 HD
BRANCH  39  41
ATOM     41  CA  VAL A   5     -11.902   4.690  15.996  0.00  0.00    +0.000 C 
BRANCH  41  42
ATOM     42  C   VAL A   5     -12.653   6.011  16.040  0.00  0.00    +0.000 C 
ATOM     43  N   UNK A   6     -12.738   6.589  17.241  0.00  0.00    +0.000 N 
ATOM     44  H   UNK A   6     -12.295   6.112  18.052  0.00  0.00    +0.000 HD
ATOM     45  O   VAL A   5     -13.142   6.488  15.010  0.00  0.00    +0.000 OA
BRANCH  43  46
ATOM     46  C   UNK A   6     -13.424   7.861  17.473  0.00  0.00    +0.000 C 
BRANCH  46  47
ATOM     47  C   UNK A   6     -12.495   8.814  18.199  0.00  0.00    +0.000 C 
ATOM     48  O   UNK A   6     -11.648   8.377  18.974  0.00  0.00    +0.000 OA
ENDBRANCH  46  47
BRANCH  46  49
ATOM     49  C   UNK A   6     -14.647   7.672  18.376  0.00  0.00    +0.000 C 
BRANCH  49  50
ATOM     50  C   UNK A   6     -15.567   6.578  17.941  0.00  0.00    +0.000 A 
ATOM     51  N   UNK A   6     -15.255   5.243  18.083  0.00  0.00    +0.000 NA
ATOM     52  C   UNK A   6     -16.253   4.509  17.622  0.00  0.00    +0.000 A 
ATOM     53  N   UNK A   6     -17.200   5.322  17.187  0.00  0.00    +0.000 NA
ATOM     54  C   UNK A   6     -16.796   6.621  17.373  0.00  0.00    +0.000 A 
ENDBRANCH  49  50
ENDBRANCH  46  49
ENDBRANCH  43  46
ENDBRANCH  41  42
BRANCH  41  55
ATOM     55  CB  VAL A   5     -10.539   4.871  15.273  0.00  0.00    +0.000 C 
ATOM     56  CG2 VAL A   5      -9.657   5.881  15.997  0.00  0.00    +0.000 C 
ATOM     57  CG1 VAL A   5      -9.845   3.526  15.168  0.00  0.00    +0.000 C 
ENDBRANCH  41  55
ENDBRANCH  39  41
ENDBRANCH  36  37
BRANCH  36  58
ATOM     58  C   UNK A   4     -15.625   1.631  15.537  0.00  0.00    +0.000 C 
BRANCH  58  59
ATOM     59  C   UNK A   4     -16.339   0.604  14.646  0.00  0.00    +0.000 C 
ATOM     60  C   UNK A   4     -17.157  -0.360  15.483  0.00  0.00    +0.000 C 
ATOM     61  C   UNK A   4     -17.224   1.333  13.648  0.00  0.00    +0.000 C 
ENDBRANCH  58  59
ENDBRANCH  36  58
ENDBRANCH  33  36
ENDBRANCH  31  32
BRANCH  31  62
ATOM     62  N   UNK A   6     -12.129  -2.524  14.956  0.00  0.00    +0.000 N 
ATOM     63  C   LEU A   2     -12.760  -3.582  15.446  0.00  0.00    +0.000 C 
ATOM     64  O   LEU A   2     -13.163  -3.644  16.607  0.00  0.00    +0.000 OA
ATOM     65  H   UNK A   6     -11.802  -2.544  13.969  0.00  0.00    +0.000 HD
BRANCH  63  66
ATOM     66  CA  LEU A   2     -12.983  -4.745  14.484  0.00  0.00    +0.000 C 
BRANCH  66  67
ATOM     67  N   LEU A   2     -12.624  -5.987  15.123  0.00  0.00    +0.000 N 
ATOM     68  H   LEU A   2     -13.324  -6.454  15.735  0.00  0.00    +0.000 HD
ATOM     69  C   GLU A   1     -11.442  -6.556  14.963  0.00  0.00    +0.000 C 
ATOM     70  O   GLU A   1     -10.571  -6.103  14.221  0.00  0.00    +0.000 OA
BRANCH  69  71
ATOM     71  CA  GLU A   1     -11.243  -7.866  15.720  0.00  0.00    +0.000 C 
BRANCH  71  72
ATOM     72  N   GLU A   1     -10.767  -8.898  14.826  0.00  0.00    +0.000 NA
ATOM     73  H   GLU A   1     -10.163  -8.632  14.022  0.00  0.00    +0.000 HD
ENDBRANCH  71  72
BRANCH  71  74
ATOM     74  CB  GLU A   1     -10.267  -7.682  16.884  0.00  0.00    +0.000 C 
BRANCH  74  75
ATOM     75  CG  GLU A   1     -10.754  -6.713  17.952  0.00  0.00    +0.000 C 
BRANCH  75  76
ATOM     76  CD  GLU A   1      -9.887  -6.732  19.197  0.00  0.00    +0.000 C 
ATOM     77  OE2 GLU A   1      -9.755  -5.678  19.842  0.00  0.00    +0.000 OA
ATOM     78  OE1 GLU A   1      -9.356  -7.807  19.542  0.00  0.00    +0.000 OA
ENDBRANCH  75  76
ENDBRANCH  74  75
ENDBRANCH  71  74
ENDBRANCH  69  71
ENDBRANCH  66  67
BRANCH  66  79
ATOM     79  CB  LEU A   2     -14.458  -4.806  14.080  0.00  0.00    +0.000 C 
BRANCH  79  80
ATOM     80  CG  LEU A   2     -15.180  -3.522  13.684  0.00  0.00    +0.000 C 
ATOM     81  CD2 LEU A   2     -16.639  -3.853  13.435  0.00  0.00    +0.000 C 
ATOM     82  CD1 LEU A   2     -14.557  -2.929  12.434  0.00  0.00    +0.000 C 
ENDBRANCH  79  80
ENDBRANCH  66  79
ENDBRANCH  63  66
ENDBRANCH  31  62
ENDBRANCH  30  31
ENDBRANCH  29  30
ENDBRANCH  14  25
BRANCH   1  84
ATOM     83  C   UNK A   3     -11.807   0.559  10.446  0.00  0.00    +0.000 C 
ATOM     84  N   UNK A   4     -11.170  -0.382  11.130  0.00  0.00    +0.000 N 
ATOM     85  H   UNK A   4     -11.311  -0.432  12.159  0.00  0.00    +0.000 HD
ATOM     86  O   UNK A   3     -11.612   0.773   9.242  0.00  0.00    +0.000 OA
BRANCH  83  87
ATOM     87  C   UNK A   3     -12.704   1.480  11.257  0.00  0.00    +0.000 C 
BRANCH  87  90
ATOM     88  C   LEU A   2     -12.547   3.883  11.347  0.00  0.00    +0.000 C 
ATOM     89  O   LEU A   2     -12.618   3.887  12.574  0.00  0.00    +0.000 OA
ATOM     90  N   UNK A   3     -12.658   2.781  10.619  0.00  0.00    +0.000 N 
ATOM     91  H   UNK A   3     -12.712   2.850   9.583  0.00  0.00    +0.000 HD
BRANCH  88  92
ATOM     92  CA  LEU A   2     -12.396   5.176  10.577  0.00  0.00    +0.000 C 
BRANCH  92  94
ATOM     93  C   GLU A   1     -12.850   7.550  10.871  0.00  0.00    +0.000 C 
ATOM     94  N   LEU A   2     -12.705   6.338  11.400  0.00  0.00    +0.000 N 
ATOM     95  H   LEU A   2     -12.815   6.217  12.427  0.00  0.00    +0.000 HD
ATOM     96  O   GLU A   1     -12.766   7.756   9.659  0.00  0.00    +0.000 OA
BRANCH  93  97
ATOM     97  CA  GLU A   1     -13.198   8.693  11.838  0.00  0.00    +0.000 C 
BRANCH  97  98
ATOM     98  CB  GLU A   1     -11.940   9.375  12.423  0.00  0.00    +0.000 C 
ATOM     99  CG2 GLU A   1     -11.158   8.418  13.314  0.00  0.00    +0.000 C 
BRANCH  98 100
ATOM    100  CG1 GLU A   1     -11.066   9.931  11.299  0.00  0.00    +0.000 C 
ATOM    101  CD1 GLU A   1      -9.889  10.751  11.803  0.00  0.00    +0.000 C 
ENDBRANCH  98 100
ENDBRANCH  97  98
BRANCH  97 102
ATOM    102  N   GLU A   1     -14.068   8.210  12.898  0.00  0.00    +0.000 NA
ATOM    103  H   GLU A   1     -13.717   7.495  13.567  0.00  0.00    +0.000 HD
ENDBRANCH  97 102
ENDBRANCH  93  97
ENDBRANCH  92  94
BRANCH  92 104
ATOM    104  CB  LEU A   2     -10.957   5.249  10.039  0.00  0.00    +0.000 C 
BRANCH 104 105
ATOM    105  CG  LEU A   2      -9.857   5.274  11.110  0.00  0.00    +0.000 C 
BRANCH 105 106
ATOM    106  CD  LEU A   2      -9.103   3.971  11.221  0.00  0.00    +0.000 C 
ATOM    107  OE1 LEU A   2      -9.692   2.910  11.332  0.00  0.00    +0.000 OA
ATOM    108  NE2 LEU A   2      -7.789   4.050  11.201  0.00  0.00    +0.000 N 
ATOM    109 HE21 LEU A   2      -7.215   3.187  11.282  0.00  0.00    +0.000 HD
ATOM    110 HE22 LEU A   2      -7.325   4.976  11.105  0.00  0.00    +0.000 HD
ENDBRANCH 105 106
ENDBRANCH 104 105
ENDBRANCH  92 104
ENDBRANCH  88  92
ENDBRANCH  87  90
BRANCH  87 111
ATOM    111  C   UNK A   3     -14.141   0.940  11.445  0.00  0.00    +0.000 C 
BRANCH 111 112
ATOM    112  C   UNK A   3     -14.811   0.432  10.189  0.00  0.00    +0.000 A 
ATOM    113  C   UNK A   3     -15.902   1.110   9.655  0.00  0.00    +0.000 A 
ATOM    114  C   UNK A   3     -16.608   0.592   8.566  0.00  0.00    +0.000 A 
ATOM    115  C   UNK A   3     -16.216  -0.617   7.999  0.00  0.00    +0.000 A 
ATOM    116  C   UNK A   3     -15.120  -1.300   8.519  0.00  0.00    +0.000 A 
ATOM    117  C   UNK A   3     -14.426  -0.776   9.605  0.00  0.00    +0.000 A 
ENDBRANCH 111 112
ENDBRANCH  87 111
ENDBRANCH  83  87
ENDBRANCH   1  84
BRANCH   9 118
ATOM    118  C   UNK A   6      -7.460  -8.600  12.484  0.00  0.00    +0.000 C 
ATOM    119  O   UNK A   6      -8.539  -8.954  12.978  0.00  0.00    +0.000 OA
ENDBRANCH   9 118
BRANCH   5 120
ATOM    120  CB  VAL A   5     -10.473  -5.975  10.316  0.00  0.00    +0.000 C 
BRANCH 120 121
ATOM    121  CG  VAL A   5     -11.944  -5.681  10.076  0.00  0.00    +0.000 A 
ATOM    122  CD2 VAL A   5     -12.932  -6.413  10.736  0.00  0.00    +0.000 A 
ATOM    123  CE2 VAL A   5     -14.293  -6.232  10.423  0.00  0.00    +0.000 A 
ATOM    124  CZ  VAL A   5     -14.665  -5.309   9.447  0.00  0.00    +0.000 A 
ATOM    125  CE1 VAL A   5     -13.693  -4.571   8.797  0.00  0.00    +0.000 A 
ATOM    126  CD1 VAL A   5     -12.340  -4.755   9.111  0.00  0.00    +0.000 A 
ENDBRANCH 120 121
ENDBRANCH   5 120
TORSDOF 42
REMARK  Name = ../refined-set-2016/1bn4/1bn4_pocket.pdb
REMARK  155 active torsions:
REMARK  status: ('A' for Active; 'I' for Inactive)
REMARK    1  A    between atoms: _1  and  _3
REMARK    2  A    between atoms: _3  and  _4
REMARK    3  A    between atoms: _3  and  _6
REMARK    4  A    between atoms: _6  and  _7
REMARK    5  A    between atoms: _17  and  _19
REMARK    6  A    between atoms: _19  and  _20
REMARK    7  A    between atoms: _19  and  _22
REMARK    8  A    between atoms: _22  and  _23
REMARK    9  A    between atoms: _28  and  _29
REMARK   10  A    between atoms: _31  and  _33
REMARK   11  A    between atoms: _33  and  _34
REMARK   12  A    between atoms: _33  and  _36
REMARK   13  A    between atoms: _36  and  _37
REMARK   14  A    between atoms: _40  and  _41
REMARK   15  A    between atoms: _46  and  _48
REMARK   16  A    between atoms: _48  and  _49
REMARK   17  A    between atoms: _48  and  _51
REMARK   18  A    between atoms: _51  and  _52
REMARK   19  A    between atoms: _57  and  _59
REMARK   20  A    between atoms: _59  and  _60
REMARK   21  A    between atoms: _59  and  _62
REMARK   22  A    between atoms: _62  and  _63
REMARK   23  A    between atoms: _68  and  _70
REMARK   24  A    between atoms: _70  and  _71
REMARK   25  A    between atoms: _70  and  _73
REMARK   26  A    between atoms: _73  and  _74
REMARK   27  A    between atoms: _77  and  _79
REMARK   28  A    between atoms: _79  and  _80
REMARK   29  A    between atoms: _79  and  _82
REMARK   30  A    between atoms: _82  and  _83
REMARK   31  A    between atoms: _83  and  _84
REMARK   32  A    between atoms: _89  and  _91
REMARK   33  A    between atoms: _91  and  _92
REMARK   34  A    between atoms: _91  and  _94
REMARK   35  A    between atoms: _94  and  _95
REMARK   36  A    between atoms: _101  and  _103
REMARK   37  A    between atoms: _114  and  _117
REMARK   38  A    between atoms: _117  and  _118
REMARK   39  A    between atoms: _126  and  _127
REMARK   40  A    between atoms: _135  and  _137
REMARK   41  A    between atoms: _137  and  _138
REMARK   42  A    between atoms: _137  and  _140
REMARK   43  A    between atoms: _140  and  _141
REMARK   44  A    between atoms: _141  and  _142
REMARK   45  A    between atoms: _145  and  _147
REMARK   46  A    between atoms: _147  and  _148
REMARK   47  A    between atoms: _147  and  _150
REMARK   48  A    between atoms: _150  and  _151
REMARK   49  A    between atoms: _156  and  _158
REMARK   50  A    between atoms: _158  and  _159
REMARK   51  A    between atoms: _158  and  _161
REMARK   52  A    between atoms: _161  and  _162
REMARK   53  A    between atoms: _162  and  _163
REMARK   54  A    between atoms: _166  and  _168
REMARK   55  A    between atoms: _168  and  _169
REMARK   56  A    between atoms: _168  and  _171
REMARK   57  A    between atoms: _171  and  _172
REMARK   58  A    between atoms: _175  and  _177
REMARK   59  A    between atoms: _177  and  _178
REMARK   60  A    between atoms: _177  and  _180
REMARK   61  A    between atoms: _180  and  _181
REMARK   62  A    between atoms: _182  and  ZN_428
REMARK   63  A    between atoms: _186  and  _188
REMARK   64  A    between atoms: _188  and  _189
REMARK   65  A    between atoms: _188  and  _191
REMARK   66  A    between atoms: _191  and  _192
REMARK   67  A    between atoms: _195  and  _197
REMARK   68  A    between atoms: _197  and  _198
REMARK   69  A    between atoms: _197  and  _200
REMARK   70  A    between atoms: _203  and  _205
REMARK   71  A    between atoms: _205  and  _206
REMARK   72  A    between atoms: _205  and  _208
REMARK   73  A    between atoms: _208  and  _209
REMARK   74  A    between atoms: _214  and  _216
REMARK   75  A    between atoms: _216  and  _217
REMARK   76  A    between atoms: _216  and  _219
REMARK   77  A    between atoms: _219  and  _220
REMARK   78  A    between atoms: _226  and  _228
REMARK   79  A    between atoms: _228  and  _229
REMARK   80  A    between atoms: _231  and  _233
REMARK   81  A    between atoms: _233  and  _234
REMARK   82  A    between atoms: _233  and  _236
REMARK   83  A    between atoms: _236  and  _237
REMARK   84  A    between atoms: _237  and  _238
REMARK   85  A    between atoms: _238  and  _239
REMARK   86  A    between atoms: _239  and  _240
REMARK   87  A    between atoms: _244  and  _246
REMARK   88  A    between atoms: _246  and  _247
REMARK   89  A    between atoms: _250  and  _252
REMARK   90  A    between atoms: _252  and  _253
REMARK   91  A    between atoms: _252  and  _255
REMARK   92  A    between atoms: _258  and  _260
REMARK   93  A    between atoms: _260  and  _261
REMARK   94  A    between atoms: _260  and  _263
REMARK   95  A    between atoms: _263  and  _264
REMARK   96  A    between atoms: _264  and  _265
REMARK   97  A    between atoms: _270  and  _272
REMARK   98  A    between atoms: _272  and  _273
REMARK   99  A    between atoms: _272  and  _275
REMARK  100  A    between atoms: _275  and  _276
REMARK  101  A    between atoms: _279  and  _281
REMARK  102  A    between atoms: _281  and  _282
REMARK  103  A    between atoms: _285  and  _287
REMARK  104  A    between atoms: _287  and  _288
REMARK  105  A    between atoms: _287  and  _290
REMARK  106  A    between atoms: _293  and  _295
REMARK  107  A    between atoms: _295  and  _296
REMARK  108  A    between atoms: _295  and  _298
REMARK  109  A    between atoms: _298  and  _299
REMARK  110  A    between atoms: _302  and  _304
REMARK  111  A    between atoms: _304  and  _305
REMARK  112  A    between atoms: _304  and  _307
REMARK  113  A    between atoms: _307  and  _308
REMARK  114  A    between atoms: _310  and  _312
REMARK  115  A    between atoms: _312  and  _313
REMARK  116  A    between atoms: _312  and  _315
REMARK  117  A    between atoms: _315  and  _316
REMARK  118  A    between atoms: _319  and  _321
REMARK  119  A    between atoms: _321  and  _322
REMARK  120  A    between atoms: _321  and  _324
REMARK  121  A    between atoms: _324  and  _325
REMARK  122  A    between atoms: _328  and  _330
REMARK  123  A    between atoms: _330  and  _331
REMARK  124  A    between atoms: _330  and  _333
REMARK  125  A    between atoms: _333  and  _334
REMARK  126  A    between atoms: _338  and  _339
REMARK  127  A    between atoms: _345  and  _346
REMARK  128  A    between atoms: _351  and  _353
REMARK  129  A    between atoms: _353  and  _354
REMARK  130  A    between atoms: _353  and  _356
REMARK  131  A    between atoms: _356  and  _357
REMARK  132  A    between atoms: _360  and  _362
REMARK  133  A    between atoms: _362  and  _363
REMARK  134  A    between atoms: _362  and  _365
REMARK  135  A    between atoms: _365  and  _366
REMARK  136  A    between atoms: _369  and  _371
REMARK  137  A    between atoms: _371  and  _372
REMARK  138  A    between atoms: _371  and  _374
REMARK  139  A    between atoms: _376  and  _378
REMARK  140  A    between atoms: _378  and  _379
REMARK  141  A    between atoms: _378  and  _381
REMARK  142  A    between atoms: _384  and  _386
REMARK  143  A    between atoms: _386  and  _387
REMARK  144  A    between atoms: _386  and  _389
REMARK  145  A    between atoms: _389  and  _390
REMARK  146  A    between atoms: _400  and  _402
REMARK  147  A    between atoms: _402  and  _403
REMARK  148  A    between atoms: _402  and  _405
REMARK  149  A    between atoms: _405  and  _406
REMARK  150  A    between atoms: _411  and  _413
REMARK  151  A    between atoms: _413  and  _414
REMARK  152  A    between atoms: _413  and  _416
REMARK  153  A    between atoms: _416  and  _417
REMARK  154  A    between atoms: _417  and  _418
REMARK  155  A    between atoms: _418  and  _419
REMARK                            x       y       z     vdW  Elec       q    Type
REMARK                         _______ _______ _______ _____ _____    ______ ____
ROOT
ATOM      1  C   GLU A   1      -6.063  -8.636  21.156  0.00  0.00    +0.238 C 
ATOM      2  O   GLU A   1      -5.206  -9.067  21.924  0.00  0.00    -0.274 OA
ATOM      3  N   HIS A   2      -7.275  -8.253  21.555  0.00  0.00    -0.298 N 
ATOM      4  H   HIS A   2      -7.917  -7.805  20.870  0.00  0.00    +0.150 HD
ENDROOT
BRANCH   1   5
ATOM      5  CA  GLU A   1      -5.753  -8.428  19.685  0.00  0.00    +0.145 C 
BRANCH   5   6
ATOM      6  N   GLU A   1      -6.857  -8.943  18.900  0.00  0.00    -0.238 NA
ATOM      7  H   GLU A   1      -7.667  -8.326  18.688  0.00  0.00    +0.142 HD
ENDBRANCH   5   6
BRANCH   5   8
ATOM      8  CB  GLU A   1      -5.546  -6.956  19.372  0.00  0.00    +0.038 C 
BRANCH   8   9
ATOM      9  CG  GLU A   1      -5.394  -6.695  17.893  0.00  0.00    +0.116 C 
BRANCH   9  10
ATOM     10  CD  GLU A   1      -4.670  -5.414  17.623  0.00  0.00    +0.365 C 
ATOM     11  OE2 GLU A   1      -5.244  -4.336  17.886  0.00  0.00    -0.246 OA
ATOM     12  OE1 GLU A   1      -3.515  -5.490  17.159  0.00  0.00    -0.246 OA
ENDBRANCH   9  10
ENDBRANCH   8   9
ENDBRANCH   5   8
ENDBRANCH   1   5
BRANCH   3  13
ATOM     13  CA  HIS A   2      -7.721  -8.447  22.923  0.00  0.00    +0.143 C 
BRANCH  13  14
ATOM     14  C   HIS A   2      -8.150  -9.891  22.991  0.00  0.00    +0.227 C 
ATOM     15  O   HIS A   2      -8.589 -10.451  21.987  0.00  0.00    -0.286 OA
ENDBRANCH  13  14
BRANCH  13  16
ATOM     16  CB  HIS A   2      -8.932  -7.577  23.230  0.00  0.00    +0.075 C 
BRANCH  16  17
ATOM     17  CG  HIS A   2      -8.595  -6.146  23.484  0.00  0.00    +0.082 A 
ATOM     18  CD2 HIS A   2      -8.211  -5.511  24.614  0.00  0.00    +0.115 A 
ATOM     19  NE2 HIS A   2      -7.993  -4.196  24.284  0.00  0.00    -0.221 NA
ATOM     20  CE1 HIS A   2      -8.235  -4.029  22.998  0.00  0.00    +0.199 A 
ATOM     21  ND1 HIS A   2      -8.603  -5.191  22.491  0.00  0.00    -0.227 NA
ENDBRANCH  16  17
ENDBRANCH  13  16
ENDBRANCH   3  13
TORSDOF 9
REMARK  Name = ../refined-set-2016/1bn4/1bn4_pocket.pdb
REMARK  155 active torsions:
REMARK  status: ('A' for Active; 'I' for Inactive)
REMARK    1  A    between atoms: _1  and  _3
REMARK    2  A    between atoms: _3  and  _4
REMARK    3  A    between atoms: _3  and  _6
REMARK    4  A    between atoms: _6  and  _7
REMARK    5  A    between atoms: _17  and  _19
REMARK    6  A    between atoms: _19  and  _20
REMARK    7  A    between atoms: _19  and  _22
REMARK    8  A    between atoms: _22  and  _23
REMARK    9  A    between atoms: _28  and  _29
REMARK   10  A    between atoms: _31  and  _33
REMARK   11  A    between atoms: _33  and  _34
REMARK   12  A    between atoms: _33  and  _36
REMARK   13  A    between atoms: _36  and  _37
REMARK   14  A    between atoms: _40  and  _41
REMARK   15  A    between atoms: _46  and  _48
REMARK   16  A    between atoms: _48  and  _49
REMARK   17  A    between atoms: _48  and  _51
REMARK   18  A    between atoms: _51  and  _52
REMARK   19  A    between atoms: _57  and  _59
REMARK   20  A    between atoms: _59  and  _60
REMARK   21  A    between atoms: _59  and  _62
REMARK   22  A    between atoms: _62  and  _63
REMARK   23  A    between atoms: _68  and  _70
REMARK   24  A    between atoms: _70  and  _71
REMARK   25  A    between atoms: _70  and  _73
REMARK   26  A    between atoms: _73  and  _74
REMARK   27  A    between atoms: _77  and  _79
REMARK   28  A    between atoms: _79  and  _80
REMARK   29  A    between atoms: _79  and  _82
REMARK   30  A    between atoms: _82  and  _83
REMARK   31  A    between atoms: _83  and  _84
REMARK   32  A    between atoms: _89  and  _91
REMARK   33  A    between atoms: _91  and  _92
REMARK   34  A    between atoms: _91  and  _94
REMARK   35  A    between atoms: _94  and  _95
REMARK   36  A    between atoms: _101  and  _103
REMARK   37  A    between atoms: _114  and  _117
REMARK   38  A    between atoms: _117  and  _118
REMARK   39  A    between atoms: _126  and  _127
REMARK   40  A    between atoms: _135  and  _137
REMARK   41  A    between atoms: _137  and  _138
REMARK   42  A    between atoms: _137  and  _140
REMARK   43  A    between atoms: _140  and  _141
REMARK   44  A    between atoms: _141  and  _142
REMARK   45  A    between atoms: _145  and  _147
REMARK   46  A    between atoms: _147  and  _148
REMARK   47  A    between atoms: _147  and  _150
REMARK   48  A    between atoms: _150  and  _151
REMARK   49  A    between atoms: _156  and  _158
REMARK   50  A    between atoms: _158  and  _159
REMARK   51  A    between atoms: _158  and  _161
REMARK   52  A    between atoms: _161  and  _162
REMARK   53  A    between atoms: _162  and  _163
REMARK   54  A    between atoms: _166  and  _168
REMARK   55  A    between atoms: _168  and  _169
REMARK   56  A    between atoms: _168  and  _171
REMARK   57  A    between atoms: _171  and  _172
REMARK   58  A    between atoms: _175  and  _177
REMARK   59  A    between atoms: _177  and  _178
REMARK   60  A    between atoms: _177  and  _180
REMARK   61  A    between atoms: _180  and  _181
REMARK   62  A    between atoms: _182  and  ZN_428
REMARK   63  A    between atoms: _186  and  _188
REMARK   64  A    between atoms: _188  and  _189
REMARK   65  A    between atoms: _188  and  _191
REMARK   66  A    between atoms: _191  and  _192
REMARK   67  A    between atoms: _195  and  _197
REMARK   68  A    between atoms: _197  and  _198
REMARK   69  A    between atoms: _197  and  _200
REMARK   70  A    between atoms: _203  and  _205
REMARK   71  A    between atoms: _205  and  _206
REMARK   72  A    between atoms: _205  and  _208
REMARK   73  A    between atoms: _208  and  _209
REMARK   74  A    between atoms: _214  and  _216
REMARK   75  A    between atoms: _216  and  _217
REMARK   76  A    between atoms: _216  and  _219
REMARK   77  A    between atoms: _219  and  _220
REMARK   78  A    between atoms: _226  and  _228
REMARK   79  A    between atoms: _228  and  _229
REMARK   80  A    between atoms: _231  and  _233
REMARK   81  A    between atoms: _233  and  _234
REMARK   82  A    between atoms: _233  and  _236
REMARK   83  A    between atoms: _236  and  _237
REMARK   84  A    between atoms: _237  and  _238
REMARK   85  A    between atoms: _238  and  _239
REMARK   86  A    between atoms: _239  and  _240
REMARK   87  A    between atoms: _244  and  _246
REMARK   88  A    between atoms: _246  and  _247
REMARK   89  A    between atoms: _250  and  _252
REMARK   90  A    between atoms: _252  and  _253
REMARK   91  A    between atoms: _252  and  _255
REMARK   92  A    between atoms: _258  and  _260
REMARK   93  A    between atoms: _260  and  _261
REMARK   94  A    between atoms: _260  and  _263
REMARK   95  A    between atoms: _263  and  _264
REMARK   96  A    between atoms: _264  and  _265
REMARK   97  A    between atoms: _270  and  _272
REMARK   98  A    between atoms: _272  and  _273
REMARK   99  A    between atoms: _272  and  _275
REMARK  100  A    between atoms: _275  and  _276
REMARK  101  A    between atoms: _279  and  _281
REMARK  102  A    between atoms: _281  and  _282
REMARK  103  A    between atoms: _285  and  _287
REMARK  104  A    between atoms: _287  and  _288
REMARK  105  A    between atoms: _287  and  _290
REMARK  106  A    between atoms: _293  and  _295
REMARK  107  A    between atoms: _295  and  _296
REMARK  108  A    between atoms: _295  and  _298
REMARK  109  A    between atoms: _298  and  _299
REMARK  110  A    between atoms: _302  and  _304
REMARK  111  A    between atoms: _304  and  _305
REMARK  112  A    between atoms: _304  and  _307
REMARK  113  A    between atoms: _307  and  _308
REMARK  114  A    between atoms: _310  and  _312
REMARK  115  A    between atoms: _312  and  _313
REMARK  116  A    between atoms: _312  and  _315
REMARK  117  A    between atoms: _315  and  _316
REMARK  118  A    between atoms: _319  and  _321
REMARK  119  A    between atoms: _321  and  _322
REMARK  120  A    between atoms: _321  and  _324
REMARK  121  A    between atoms: _324  and  _325
REMARK  122  A    between atoms: _328  and  _330
REMARK  123  A    between atoms: _330  and  _331
REMARK  124  A    between atoms: _330  and  _333
REMARK  125  A    between atoms: _333  and  _334
REMARK  126  A    between atoms: _338  and  _339
REMARK  127  A    between atoms: _345  and  _346
REMARK  128  A    between atoms: _351  and  _353
REMARK  129  A    between atoms: _353  and  _354
REMARK  130  A    between atoms: _353  and  _356
REMARK  131  A    between atoms: _356  and  _357
REMARK  132  A    between atoms: _360  and  _362
REMARK  133  A    between atoms: _362  and  _363
REMARK  134  A    between atoms: _362  and  _365
REMARK  135  A    between atoms: _365  and  _366
REMARK  136  A    between atoms: _369  and  _371
REMARK  137  A    between atoms: _371  and  _372
REMARK  138  A    between atoms: _371  and  _374
REMARK  139  A    between atoms: _376  and  _378
REMARK  140  A    between atoms: _378  and  _379
REMARK  141  A    between atoms: _378  and  _381
REMARK  142  A    between atoms: _384  and  _386
REMARK  143  A    between atoms: _386  and  _387
REMARK  144  A    between atoms: _386  and  _389
REMARK  145  A    between atoms: _389  and  _390
REMARK  146  A    between atoms: _400  and  _402
REMARK  147  A    between atoms: _402  and  _403
REMARK  148  A    between atoms: _402  and  _405
REMARK  149  A    between atoms: _405  and  _406
REMARK  150  A    between atoms: _411  and  _413
REMARK  151  A    between atoms: _413  and  _414
REMARK  152  A    between atoms: _413  and  _416
REMARK  153  A    between atoms: _416  and  _417
REMARK  154  A    between atoms: _417  and  _418
REMARK  155  A    between atoms: _418  and  _419
REMARK                            x       y       z     vdW  Elec       q    Type
REMARK                         _______ _______ _______ _____ _____    ______ ____
ROOT
ATOM      1  CA  LYS A   3      -4.996  17.297  18.820  0.00  0.00    +0.149 C 
ENDROOT
BRANCH   1   4
ATOM      2  C   GLY A   2      -4.109  15.913  17.034  0.00  0.00    +0.243 C 
ATOM      3  O   GLY A   2      -3.127  15.613  17.704  0.00  0.00    -0.273 OA
ATOM      4  N   LYS A   3      -5.045  16.748  17.472  0.00  0.00    -0.297 N 
ATOM      5  H   LYS A   3      -5.827  17.015  16.841  0.00  0.00    +0.150 HD
BRANCH   2   6
ATOM      6  CA  GLY A   2      -4.267  15.370  15.624  0.00  0.00    +0.176 C 
BRANCH   6   9
ATOM      7  C   PHE A   1      -6.408  14.264  15.907  0.00  0.00    +0.239 C 
ATOM      8  O   PHE A   1      -5.995  13.619  16.873  0.00  0.00    -0.274 OA
ATOM      9  N   GLY A   2      -5.649  15.128  15.238  0.00  0.00    -0.296 N 
ATOM     10  H   GLY A   2      -6.050  15.639  14.426  0.00  0.00    +0.150 HD
BRANCH   7  11
ATOM     11  CA  PHE A   1      -7.846  14.097  15.409  0.00  0.00    +0.149 C 
BRANCH  11  12
ATOM     12  N   PHE A   1      -8.474  15.361  15.047  0.00  0.00    -0.238 NA
ATOM     13  H   PHE A   1      -8.838  15.478  14.080  0.00  0.00    +0.142 HD
ENDBRANCH  11  12
BRANCH  11  14
ATOM     14  CB  PHE A   1      -7.887  13.133  14.221  0.00  0.00    +0.053 C 
BRANCH  14  15
ATOM     15  CG  PHE A   1      -7.331  11.778  14.527  0.00  0.00    -0.020 A 
ATOM     16  CD2 PHE A   1      -8.136  10.799  15.084  0.00  0.00    -0.004 A 
ATOM     17  CE2 PHE A   1      -7.618   9.549  15.414  0.00  0.00    -0.000 A 
ATOM     18  CZ  PHE A   1      -6.273   9.270  15.183  0.00  0.00    -0.000 A 
ATOM     19  CE1 PHE A   1      -5.452  10.243  14.620  0.00  0.00    -0.000 A 
ATOM     20  CD1 PHE A   1      -5.987  11.492  14.294  0.00  0.00    -0.004 A 
ENDBRANCH  14  15
ENDBRANCH  11  14
ENDBRANCH   7  11
ENDBRANCH   6   9
ENDBRANCH   2   6
ENDBRANCH   1   4
BRANCH   1  21
ATOM     21  C   LYS A   3      -5.457  16.216  19.790  0.00  0.00    +0.241 C 
ATOM     22  O   LYS A   3      -4.942  16.105  20.908  0.00  0.00    -0.273 OA
ATOM     23  N   ALA A   4      -6.426  15.416  19.352  0.00  0.00    -0.297 N 
ATOM     24  H   ALA A   4      -6.810  15.565  18.397  0.00  0.00    +0.150 HD
BRANCH  23  25
ATOM     25  CA  ALA A   4      -6.965  14.338  20.169  0.00  0.00    +0.149 C 
ATOM     26  CB  ALA A   4      -8.109  13.637  19.435  0.00  0.00    +0.031 C 
BRANCH  25  27
ATOM     27  C   ALA A   4      -5.883  13.339  20.580  0.00  0.00    +0.241 C 
ATOM     28  O   ALA A   4      -5.870  12.859  21.726  0.00  0.00    -0.273 OA
ATOM     29  N   VAL A   5      -4.932  13.079  19.682  0.00  0.00    -0.297 N 
ATOM     30  H   VAL A   5      -4.958  13.551  18.756  0.00  0.00    +0.150 HD
BRANCH  29  31
ATOM     31  CA  VAL A   5      -3.854  12.140  19.982  0.00  0.00    +0.149 C 
BRANCH  31  32
ATOM     32  C   VAL A   5      -2.786  12.688  20.928  0.00  0.00    +0.241 C 
ATOM     33  N   GLN A   6      -3.047  13.851  21.505  0.00  0.00    -0.298 N 
ATOM     34  H   GLN A   6      -3.932  14.345  21.272  0.00  0.00    +0.150 HD
ATOM     35  O   VAL A   5      -1.754  12.066  21.145  0.00  0.00    -0.273 OA
BRANCH  33  36
ATOM     36  CA  GLN A   6      -2.129  14.455  22.456  0.00  0.00    +0.137 C 
BRANCH  36  37
ATOM     37  C   GLN A   6      -2.800  14.460  23.828  0.00  0.00    +0.227 C 
ATOM     38  O   GLN A   6      -2.299  15.084  24.767  0.00  0.00    -0.286 OA
ENDBRANCH  36  37
BRANCH  36  39
ATOM     39  CB  GLN A   6      -1.829  15.903  22.059  0.00  0.00    +0.037 C 
BRANCH  39  40
ATOM     40  CG  GLN A   6      -1.074  16.058  20.757  0.00  0.00    +0.087 C 
BRANCH  40  41
ATOM     41  CD  GLN A   6      -0.998  17.503  20.309  0.00  0.00    +0.219 C 
ATOM     42  OE1 GLN A   6      -0.401  18.347  20.979  0.00  0.00    -0.275 OA
ATOM     43  NE2 GLN A   6      -1.608  17.799  19.170  0.00  0.00    -0.329 N 
ATOM     44 HE21 GLN A   6      -1.594  18.775  18.811  0.00  0.00    +0.145 HD
ATOM     45 HE22 GLN A   6      -2.101  17.055  18.635  0.00  0.00    +0.145 HD
ENDBRANCH  40  41
ENDBRANCH  39  40
ENDBRANCH  36  39
ENDBRANCH  33  36
ENDBRANCH  31  32
BRANCH  31  46
ATOM     46  CB  VAL A   5      -3.211  11.542  18.700  0.00  0.00    +0.027 C 
ATOM     47  CG2 VAL A   5      -4.217  10.669  17.993  0.00  0.00    +0.002 C 
ATOM     48  CG1 VAL A   5      -2.708  12.634  17.768  0.00  0.00    +0.002 C 
ENDBRANCH  31  46
ENDBRANCH  29  31
ENDBRANCH  25  27
ENDBRANCH  23  25
ENDBRANCH   1  21
BRANCH   1  49
ATOM     49  CB  LYS A   3      -5.918  18.507  18.948  0.00  0.00    +0.029 C 
BRANCH  49  50
ATOM     50  CG  LYS A   3      -5.607  19.633  17.994  0.00  0.00    +0.000 C 
BRANCH  50  51
ATOM     51  CD  LYS A   3      -4.163  20.089  18.117  0.00  0.00    -0.024 C 
BRANCH  51  52
ATOM     52  CE  LYS A   3      -3.840  21.133  17.056  0.00  0.00    -0.086 C 
BRANCH  52  53
ATOM     53  NZ  LYS A   3      -4.113  20.625  15.671  0.00  0.00    +0.380 N 
ATOM     54  HZ1 LYS A   3      -5.119  20.374  15.587  0.00  0.00    -0.089 HD
ATOM     55  HZ2 LYS A   3      -3.529  19.784  15.490  0.00  0.00    -0.089 HD
ATOM     56  HZ3 LYS A   3      -3.880  21.366  14.979  0.00  0.00    -0.089 HD
ENDBRANCH  52  53
ENDBRANCH  51  52
ENDBRANCH  50  51
ENDBRANCH  49  50
ENDBRANCH   1  49
TORSDOF 23
REMARK  Name = ../refined-set-2016/1bn4/1bn4_pocket.pdb
REMARK  155 active torsions:
REMARK  status: ('A' for Active; 'I' for Inactive)
REMARK    1  A    between atoms: _1  and  _3
REMARK    2  A    between atoms: _3  and  _4
REMARK    3  A    between atoms: _3  and  _6
REMARK    4  A    between atoms: _6  and  _7
REMARK    5  A    between atoms: _17  and  _19
REMARK    6  A    between atoms: _19  and  _20
REMARK    7  A    between atoms: _19  and  _22
REMARK    8  A    between atoms: _22  and  _23
REMARK    9  A    between atoms: _28  and  _29
REMARK   10  A    between atoms: _31  and  _33
REMARK   11  A    between atoms: _33  and  _34
REMARK   12  A    between atoms: _33  and  _36
REMARK   13  A    between atoms: _36  and  _37
REMARK   14  A    between atoms: _40  and  _41
REMARK   15  A    between atoms: _46  and  _48
REMARK   16  A    between atoms: _48  and  _49
REMARK   17  A    between atoms: _48  and  _51
REMARK   18  A    between atoms: _51  and  _52
REMARK   19  A    between atoms: _57  and  _59
REMARK   20  A    between atoms: _59  and  _60
REMARK   21  A    between atoms: _59  and  _62
REMARK   22  A    between atoms: _62  and  _63
REMARK   23  A    between atoms: _68  and  _70
REMARK   24  A    between atoms: _70  and  _71
REMARK   25  A    between atoms: _70  and  _73
REMARK   26  A    between atoms: _73  and  _74
REMARK   27  A    between atoms: _77  and  _79
REMARK   28  A    between atoms: _79  and  _80
REMARK   29  A    between atoms: _79  and  _82
REMARK   30  A    between atoms: _82  and  _83
REMARK   31  A    between atoms: _83  and  _84
REMARK   32  A    between atoms: _89  and  _91
REMARK   33  A    between atoms: _91  and  _92
REMARK   34  A    between atoms: _91  and  _94
REMARK   35  A    between atoms: _94  and  _95
REMARK   36  A    between atoms: _101  and  _103
REMARK   37  A    between atoms: _114  and  _117
REMARK   38  A    between atoms: _117  and  _118
REMARK   39  A    between atoms: _126  and  _127
REMARK   40  A    between atoms: _135  and  _137
REMARK   41  A    between atoms: _137  and  _138
REMARK   42  A    between atoms: _137  and  _140
REMARK   43  A    between atoms: _140  and  _141
REMARK   44  A    between atoms: _141  and  _142
REMARK   45  A    between atoms: _145  and  _147
REMARK   46  A    between atoms: _147  and  _148
REMARK   47  A    between atoms: _147  and  _150
REMARK   48  A    between atoms: _150  and  _151
REMARK   49  A    between atoms: _156  and  _158
REMARK   50  A    between atoms: _158  and  _159
REMARK   51  A    between atoms: _158  and  _161
REMARK   52  A    between atoms: _161  and  _162
REMARK   53  A    between atoms: _162  and  _163
REMARK   54  A    between atoms: _166  and  _168
REMARK   55  A    between atoms: _168  and  _169
REMARK   56  A    between atoms: _168  and  _171
REMARK   57  A    between atoms: _171  and  _172
REMARK   58  A    between atoms: _175  and  _177
REMARK   59  A    between atoms: _177  and  _178
REMARK   60  A    between atoms: _177  and  _180
REMARK   61  A    between atoms: _180  and  _181
REMARK   62  A    between atoms: _182  and  ZN_428
REMARK   63  A    between atoms: _186  and  _188
REMARK   64  A    between atoms: _188  and  _189
REMARK   65  A    between atoms: _188  and  _191
REMARK   66  A    between atoms: _191  and  _192
REMARK   67  A    between atoms: _195  and  _197
REMARK   68  A    between atoms: _197  and  _198
REMARK   69  A    between atoms: _197  and  _200
REMARK   70  A    between atoms: _203  and  _205
REMARK   71  A    between atoms: _205  and  _206
REMARK   72  A    between atoms: _205  and  _208
REMARK   73  A    between atoms: _208  and  _209
REMARK   74  A    between atoms: _214  and  _216
REMARK   75  A    between atoms: _216  and  _217
REMARK   76  A    between atoms: _216  and  _219
REMARK   77  A    between atoms: _219  and  _220
REMARK   78  A    between atoms: _226  and  _228
REMARK   79  A    between atoms: _228  and  _229
REMARK   80  A    between atoms: _231  and  _233
REMARK   81  A    between atoms: _233  and  _234
REMARK   82  A    between atoms: _233  and  _236
REMARK   83  A    between atoms: _236  and  _237
REMARK   84  A    between atoms: _237  and  _238
REMARK   85  A    between atoms: _238  and  _239
REMARK   86  A    between atoms: _239  and  _240
REMARK   87  A    between atoms: _244  and  _246
REMARK   88  A    between atoms: _246  and  _247
REMARK   89  A    between atoms: _250  and  _252
REMARK   90  A    between atoms: _252  and  _253
REMARK   91  A    between atoms: _252  and  _255
REMARK   92  A    between atoms: _258  and  _260
REMARK   93  A    between atoms: _260  and  _261
REMARK   94  A    between atoms: _260  and  _263
REMARK   95  A    between atoms: _263  and  _264
REMARK   96  A    between atoms: _264  and  _265
REMARK   97  A    between atoms: _270  and  _272
REMARK   98  A    between atoms: _272  and  _273
REMARK   99  A    between atoms: _272  and  _275
REMARK  100  A    between atoms: _275  and  _276
REMARK  101  A    between atoms: _279  and  _281
REMARK  102  A    between atoms: _281  and  _282
REMARK  103  A    between atoms: _285  and  _287
REMARK  104  A    between atoms: _287  and  _288
REMARK  105  A    between atoms: _287  and  _290
REMARK  106  A    between atoms: _293  and  _295
REMARK  107  A    between atoms: _295  and  _296
REMARK  108  A    between atoms: _295  and  _298
REMARK  109  A    between atoms: _298  and  _299
REMARK  110  A    between atoms: _302  and  _304
REMARK  111  A    between atoms: _304  and  _305
REMARK  112  A    between atoms: _304  and  _307
REMARK  113  A    between atoms: _307  and  _308
REMARK  114  A    between atoms: _310  and  _312
REMARK  115  A    between atoms: _312  and  _313
REMARK  116  A    between atoms: _312  and  _315
REMARK  117  A    between atoms: _315  and  _316
REMARK  118  A    between atoms: _319  and  _321
REMARK  119  A    between atoms: _321  and  _322
REMARK  120  A    between atoms: _321  and  _324
REMARK  121  A    between atoms: _324  and  _325
REMARK  122  A    between atoms: _328  and  _330
REMARK  123  A    between atoms: _330  and  _331
REMARK  124  A    between atoms: _330  and  _333
REMARK  125  A    between atoms: _333  and  _334
REMARK  126  A    between atoms: _338  and  _339
REMARK  127  A    between atoms: _345  and  _346
REMARK  128  A    between atoms: _351  and  _353
REMARK  129  A    between atoms: _353  and  _354
REMARK  130  A    between atoms: _353  and  _356
REMARK  131  A    between atoms: _356  and  _357
REMARK  132  A    between atoms: _360  and  _362
REMARK  133  A    between atoms: _362  and  _363
REMARK  134  A    between atoms: _362  and  _365
REMARK  135  A    between atoms: _365  and  _366
REMARK  136  A    between atoms: _369  and  _371
REMARK  137  A    between atoms: _371  and  _372
REMARK  138  A    between atoms: _371  and  _374
REMARK  139  A    between atoms: _376  and  _378
REMARK  140  A    between atoms: _378  and  _379
REMARK  141  A    between atoms: _378  and  _381
REMARK  142  A    between atoms: _384  and  _386
REMARK  143  A    between atoms: _386  and  _387
REMARK  144  A    between atoms: _386  and  _389
REMARK  145  A    between atoms: _389  and  _390
REMARK  146  A    between atoms: _400  and  _402
REMARK  147  A    between atoms: _402  and  _403
REMARK  148  A    between atoms: _402  and  _405
REMARK  149  A    between atoms: _405  and  _406
REMARK  150  A    between atoms: _411  and  _413
REMARK  151  A    between atoms: _413  and  _414
REMARK  152  A    between atoms: _413  and  _416
REMARK  153  A    between atoms: _416  and  _417
REMARK  154  A    between atoms: _417  and  _418
REMARK  155  A    between atoms: _418  and  _419
REMARK                            x       y       z     vdW  Elec       q    Type
REMARK                         _______ _______ _______ _____ _____    ______ ____
ROOT
ATOM      1  C   ALA A   2     -12.506   4.977  21.039  0.00  0.00    +0.241 C 
ATOM      2  N   VAL A   3     -12.040   3.766  21.281  0.00  0.00    -0.297 N 
ATOM      3  H   VAL A   3     -11.618   3.541  22.205  0.00  0.00    +0.150 HD
ATOM      4  O   ALA A   2     -12.946   5.304  19.940  0.00  0.00    -0.273 OA
ENDROOT
BRANCH   1   5
ATOM      5  CA  ALA A   2     -12.397   5.992  22.156  0.00  0.00    +0.149 C 
ATOM      6  CB  ALA A   2     -13.763   6.555  22.480  0.00  0.00    +0.031 C 
BRANCH   5   9
ATOM      7  C   LEU A   1     -10.552   7.584  22.309  0.00  0.00    +0.238 C 
ATOM      8  O   LEU A   1     -10.265   7.268  23.465  0.00  0.00    -0.274 OA
ATOM      9  N   ALA A   2     -11.534   7.028  21.613  0.00  0.00    -0.297 N 
ATOM     10  H   ALA A   2     -11.694   7.347  20.636  0.00  0.00    +0.150 HD
BRANCH   7  11
ATOM     11  CA  LEU A   1      -9.739   8.604  21.556  0.00  0.00    +0.145 C 
BRANCH  11  12
ATOM     12  N   LEU A   1      -9.091   9.572  22.434  0.00  0.00    -0.238 NA
ATOM     13  H   LEU A   1      -8.474   9.237  23.202  0.00  0.00    +0.142 HD
ENDBRANCH  11  12
BRANCH  11  14
ATOM     14  CB  LEU A   1      -8.695   7.841  20.723  0.00  0.00    +0.026 C 
BRANCH  14  15
ATOM     15  CG  LEU A   1      -7.643   8.581  19.892  0.00  0.00    +0.002 C 
ATOM     16  CD2 LEU A   1      -6.770   7.569  19.150  0.00  0.00    +0.000 C 
ATOM     17  CD1 LEU A   1      -8.315   9.516  18.920  0.00  0.00    +0.000 C 
ENDBRANCH  14  15
ENDBRANCH  11  14
ENDBRANCH   7  11
ENDBRANCH   5   9
ENDBRANCH   1   5
BRANCH   2  18
ATOM     18  CA  VAL A   3     -12.121   2.753  20.250  0.00  0.00    +0.149 C 
BRANCH  18  19
ATOM     19  C   VAL A   3     -13.080   1.676  20.701  0.00  0.00    +0.241 C 
ATOM     20  O   VAL A   3     -12.991   1.188  21.826  0.00  0.00    -0.273 OA
ATOM     21  N   LEU A   4     -14.016   1.341  19.822  0.00  0.00    -0.298 N 
ATOM     22  H   LEU A   4     -14.044   1.835  18.907  0.00  0.00    +0.150 HD
BRANCH  21  23
ATOM     23  CA  LEU A   4     -14.998   0.314  20.090  0.00  0.00    +0.137 C 
BRANCH  23  24
ATOM     24  C   LEU A   4     -14.439  -0.945  19.461  0.00  0.00    +0.227 C 
ATOM     25  O   LEU A   4     -14.213  -0.979  18.258  0.00  0.00    -0.286 OA
ENDBRANCH  23  24
BRANCH  23  26
ATOM     26  CB  LEU A   4     -16.321   0.679  19.421  0.00  0.00    +0.028 C 
BRANCH  26  27
ATOM     27  CG  LEU A   4     -17.600   0.650  20.253  0.00  0.00    +0.002 C 
ATOM     28  CD2 LEU A   4     -17.663  -0.624  21.078  0.00  0.00    +0.000 C 
ATOM     29  CD1 LEU A   4     -18.803   0.742  19.300  0.00  0.00    +0.000 C 
ENDBRANCH  26  27
ENDBRANCH  23  26
ENDBRANCH  21  23
ENDBRANCH  18  19
BRANCH  18  30
ATOM     30  CB  VAL A   3     -10.744   2.114  19.924  0.00  0.00    +0.027 C 
ATOM     31  CG2 VAL A   3      -9.730   3.184  19.545  0.00  0.00    +0.002 C 
ATOM     32  CG1 VAL A   3     -10.893   1.108  18.781  0.00  0.00    +0.002 C 
ENDBRANCH  18  30
ENDBRANCH   2  18
TORSDOF 13
REMARK  Name = ../refined-set-2016/1bn4/1bn4_pocket.pdb
REMARK  155 active torsions:
REMARK  status: ('A' for Active; 'I' for Inactive)
REMARK    1  A    between atoms: _1  and  _3
REMARK    2  A    between atoms: _3  and  _4
REMARK    3  A    between atoms: _3  and  _6
REMARK    4  A    between atoms: _6  and  _7
REMARK    5  A    between atoms: _17  and  _19
REMARK    6  A    between atoms: _19  and  _20
REMARK    7  A    between atoms: _19  and  _22
REMARK    8  A    between atoms: _22  and  _23
REMARK    9  A    between atoms: _28  and  _29
REMARK   10  A    between atoms: _31  and  _33
REMARK   11  A    between atoms: _33  and  _34
REMARK   12  A    between atoms: _33  and  _36
REMARK   13  A    between atoms: _36  and  _37
REMARK   14  A    between atoms: _40  and  _41
REMARK   15  A    between atoms: _46  and  _48
REMARK   16  A    between atoms: _48  and  _49
REMARK   17  A    between atoms: _48  and  _51
REMARK   18  A    between atoms: _51  and  _52
REMARK   19  A    between atoms: _57  and  _59
REMARK   20  A    between atoms: _59  and  _60
REMARK   21  A    between atoms: _59  and  _62
REMARK   22  A    between atoms: _62  and  _63
REMARK   23  A    between atoms: _68  and  _70
REMARK   24  A    between atoms: _70  and  _71
REMARK   25  A    between atoms: _70  and  _73
REMARK   26  A    between atoms: _73  and  _74
REMARK   27  A    between atoms: _77  and  _79
REMARK   28  A    between atoms: _79  and  _80
REMARK   29  A    between atoms: _79  and  _82
REMARK   30  A    between atoms: _82  and  _83
REMARK   31  A    between atoms: _83  and  _84
REMARK   32  A    between atoms: _89  and  _91
REMARK   33  A    between atoms: _91  and  _92
REMARK   34  A    between atoms: _91  and  _94
REMARK   35  A    between atoms: _94  and  _95
REMARK   36  A    between atoms: _101  and  _103
REMARK   37  A    between atoms: _114  and  _117
REMARK   38  A    between atoms: _117  and  _118
REMARK   39  A    between atoms: _126  and  _127
REMARK   40  A    between atoms: _135  and  _137
REMARK   41  A    between atoms: _137  and  _138
REMARK   42  A    between atoms: _137  and  _140
REMARK   43  A    between atoms: _140  and  _141
REMARK   44  A    between atoms: _141  and  _142
REMARK   45  A    between atoms: _145  and  _147
REMARK   46  A    between atoms: _147  and  _148
REMARK   47  A    between atoms: _147  and  _150
REMARK   48  A    between atoms: _150  and  _151
REMARK   49  A    between atoms: _156  and  _158
REMARK   50  A    between atoms: _158  and  _159
REMARK   51  A    between atoms: _158  and  _161
REMARK   52  A    between atoms: _161  and  _162
REMARK   53  A    between atoms: _162  and  _163
REMARK   54  A    between atoms: _166  and  _168
REMARK   55  A    between atoms: _168  and  _169
REMARK   56  A    between atoms: _168  and  _171
REMARK   57  A    between atoms: _171  and  _172
REMARK   58  A    between atoms: _175  and  _177
REMARK   59  A    between atoms: _177  and  _178
REMARK   60  A    between atoms: _177  and  _180
REMARK   61  A    between atoms: _180  and  _181
REMARK   62  A    between atoms: _182  and  ZN_428
REMARK   63  A    between atoms: _186  and  _188
REMARK   64  A    between atoms: _188  and  _189
REMARK   65  A    between atoms: _188  and  _191
REMARK   66  A    between atoms: _191  and  _192
REMARK   67  A    between atoms: _195  and  _197
REMARK   68  A    between atoms: _197  and  _198
REMARK   69  A    between atoms: _197  and  _200
REMARK   70  A    between atoms: _203  and  _205
REMARK   71  A    between atoms: _205  and  _206
REMARK   72  A    between atoms: _205  and  _208
REMARK   73  A    between atoms: _208  and  _209
REMARK   74  A    between atoms: _214  and  _216
REMARK   75  A    between atoms: _216  and  _217
REMARK   76  A    between atoms: _216  and  _219
REMARK   77  A    between atoms: _219  and  _220
REMARK   78  A    between atoms: _226  and  _228
REMARK   79  A    between atoms: _228  and  _229
REMARK   80  A    between atoms: _231  and  _233
REMARK   81  A    between atoms: _233  and  _234
REMARK   82  A    between atoms: _233  and  _236
REMARK   83  A    between atoms: _236  and  _237
REMARK   84  A    between atoms: _237  and  _238
REMARK   85  A    between atoms: _238  and  _239
REMARK   86  A    between atoms: _239  and  _240
REMARK   87  A    between atoms: _244  and  _246
REMARK   88  A    between atoms: _246  and  _247
REMARK   89  A    between atoms: _250  and  _252
REMARK   90  A    between atoms: _252  and  _253
REMARK   91  A    between atoms: _252  and  _255
REMARK   92  A    between atoms: _258  and  _260
REMARK   93  A    between atoms: _260  and  _261
REMARK   94  A    between atoms: _260  and  _263
REMARK   95  A    between atoms: _263  and  _264
REMARK   96  A    between atoms: _264  and  _265
REMARK   97  A    between atoms: _270  and  _272
REMARK   98  A    between atoms: _272  and  _273
REMARK   99  A    between atoms: _272  and  _275
REMARK  100  A    between atoms: _275  and  _276
REMARK  101  A    between atoms: _279  and  _281
REMARK  102  A    between atoms: _281  and  _282
REMARK  103  A    between atoms: _285  and  _287
REMARK  104  A    between atoms: _287  and  _288
REMARK  105  A    between atoms: _287  and  _290
REMARK  106  A    between atoms: _293  and  _295
REMARK  107  A    between atoms: _295  and  _296
REMARK  108  A    between atoms: _295  and  _298
REMARK  109  A    between atoms: _298  and  _299
REMARK  110  A    between atoms: _302  and  _304
REMARK  111  A    between atoms: _304  and  _305
REMARK  112  A    between atoms: _304  and  _307
REMARK  113  A    between atoms: _307  and  _308
REMARK  114  A    between atoms: _310  and  _312
REMARK  115  A    between atoms: _312  and  _313
REMARK  116  A    between atoms: _312  and  _315
REMARK  117  A    between atoms: _315  and  _316
REMARK  118  A    between atoms: _319  and  _321
REMARK  119  A    between atoms: _321  and  _322
REMARK  120  A    between atoms: _321  and  _324
REMARK  121  A    between atoms: _324  and  _325
REMARK  122  A    between atoms: _328  and  _330
REMARK  123  A    between atoms: _330  and  _331
REMARK  124  A    between atoms: _330  and  _333
REMARK  125  A    between atoms: _333  and  _334
REMARK  126  A    between atoms: _338  and  _339
REMARK  127  A    between atoms: _345  and  _346
REMARK  128  A    between atoms: _351  and  _353
REMARK  129  A    between atoms: _353  and  _354
REMARK  130  A    between atoms: _353  and  _356
REMARK  131  A    between atoms: _356  and  _357
REMARK  132  A    between atoms: _360  and  _362
REMARK  133  A    between atoms: _362  and  _363
REMARK  134  A    between atoms: _362  and  _365
REMARK  135  A    between atoms: _365  and  _366
REMARK  136  A    between atoms: _369  and  _371
REMARK  137  A    between atoms: _371  and  _372
REMARK  138  A    between atoms: _371  and  _374
REMARK  139  A    between atoms: _376  and  _378
REMARK  140  A    between atoms: _378  and  _379
REMARK  141  A    between atoms: _378  and  _381
REMARK  142  A    between atoms: _384  and  _386
REMARK  143  A    between atoms: _386  and  _387
REMARK  144  A    between atoms: _386  and  _389
REMARK  145  A    between atoms: _389  and  _390
REMARK  146  A    between atoms: _400  and  _402
REMARK  147  A    between atoms: _402  and  _403
REMARK  148  A    between atoms: _402  and  _405
REMARK  149  A    between atoms: _405  and  _406
REMARK  150  A    between atoms: _411  and  _413
REMARK  151  A    between atoms: _413  and  _414
REMARK  152  A    between atoms: _413  and  _416
REMARK  153  A    between atoms: _416  and  _417
REMARK  154  A    between atoms: _417  and  _418
REMARK  155  A    between atoms: _418  and  _419
REMARK                            x       y       z     vdW  Elec       q    Type
REMARK                         _______ _______ _______ _____ _____    ______ ____
ROOT
ATOM      1  C   THR A   4       0.903   1.234  16.604  0.00  0.00    +0.246 C 
ATOM      2  O   THR A   4       0.396   2.140  17.287  0.00  0.00    -0.273 OA
ATOM      3  N   PRO A   5       2.149   1.328  16.102  0.00  0.00    -0.272 N 
ATOM      4  CA  PRO A   5       2.904   2.568  16.290  0.00  0.00    +0.152 C 
ATOM      5  CB  PRO A   5       4.155   2.317  15.454  0.00  0.00    +0.031 C 
ATOM      6  CG  PRO A   5       4.397   0.865  15.682  0.00  0.00    +0.024 C 
ATOM      7  CD  PRO A   5       3.003   0.284  15.508  0.00  0.00    +0.094 C 
ENDROOT
BRANCH   4   8
ATOM      8  C   PRO A   5       2.063   3.711  15.730  0.00  0.00    +0.244 C 
ATOM      9  N   PRO A   6       2.161   4.913  16.322  0.00  0.00    -0.272 N 
ATOM     10  CA  PRO A   6       2.974   5.355  17.461  0.00  0.00    +0.152 C 
ATOM     11  CB  PRO A   6       2.901   6.874  17.342  0.00  0.00    +0.031 C 
ATOM     12  CG  PRO A   6       1.510   7.092  16.838  0.00  0.00    +0.024 C 
ATOM     13  CD  PRO A   6       1.339   6.022  15.798  0.00  0.00    +0.094 C 
ATOM     14  O   PRO A   5       1.381   3.540  14.716  0.00  0.00    -0.273 OA
BRANCH  10  15
ATOM     15  C   PRO A   6       2.610   4.856  18.876  0.00  0.00    +0.241 C 
ATOM     16  O   PRO A   6       3.195   5.309  19.855  0.00  0.00    -0.273 OA
ATOM     17  N   LEU A   7       1.641   3.945  18.979  0.00  0.00    -0.297 N 
ATOM     18  H   LEU A   7       1.148   3.640  18.115  0.00  0.00    +0.150 HD
BRANCH  17  19
ATOM     19  CA  LEU A   7       1.242   3.355  20.265  0.00  0.00    +0.149 C 
BRANCH  19  20
ATOM     20  C   LEU A   7       0.888   4.377  21.353  0.00  0.00    +0.241 C 
ATOM     21  O   LEU A   7       1.111   4.135  22.543  0.00  0.00    -0.273 OA
ATOM     22  N   LEU A   8       0.318   5.504  20.942  0.00  0.00    -0.298 N 
ATOM     23  H   LEU A   8       0.128   5.630  19.927  0.00  0.00    +0.150 HD
BRANCH  22  24
ATOM     24  CA  LEU A   8      -0.051   6.572  21.866  0.00  0.00    +0.137 C 
BRANCH  24  25
ATOM     25  C   LEU A   8      -1.090   6.140  22.904  0.00  0.00    +0.227 C 
ATOM     26  O   LEU A   8      -2.085   5.486  22.585  0.00  0.00    -0.286 OA
ENDBRANCH  24  25
BRANCH  24  27
ATOM     27  CB  LEU A   8      -0.540   7.796  21.085  0.00  0.00    +0.028 C 
BRANCH  27  28
ATOM     28  CG  LEU A   8       0.493   8.289  20.063  0.00  0.00    +0.002 C 
ATOM     29  CD2 LEU A   8       1.785   8.659  20.762  0.00  0.00    +0.000 C 
ATOM     30  CD1 LEU A   8      -0.050   9.472  19.300  0.00  0.00    +0.000 C 
ENDBRANCH  27  28
ENDBRANCH  24  27
ENDBRANCH  22  24
ENDBRANCH  19  20
BRANCH  19  31
ATOM     31  CB  LEU A   7       2.364   2.435  20.762  0.00  0.00    +0.029 C 
BRANCH  31  32
ATOM     32  CG  LEU A   7       2.777   1.322  19.793  0.00  0.00    +0.002 C 
ATOM     33  CD2 LEU A   7       4.165   0.799  20.137  0.00  0.00    +0.000 C 
ATOM     34  CD1 LEU A   7       1.748   0.203  19.807  0.00  0.00    +0.000 C 
ENDBRANCH  31  32
ENDBRANCH  19  31
ENDBRANCH  17  19
ENDBRANCH  10  15
ENDBRANCH   4   8
BRANCH   1  35
ATOM     35  CA  THR A   4       0.147  -0.066  16.370  0.00  0.00    +0.176 C 
BRANCH  35  38
ATOM     36  C   THR A   3      -1.156  -1.212  18.091  0.00  0.00    +0.243 C 
ATOM     37  O   THR A   3      -0.583  -2.285  17.876  0.00  0.00    -0.273 OA
ATOM     38  N   THR A   4      -0.898  -0.107  17.395  0.00  0.00    -0.295 N 
ATOM     39  H   THR A   4      -1.454   0.751  17.584  0.00  0.00    +0.150 HD
BRANCH  36  40
ATOM     40  CA  THR A   3      -2.238  -1.114  19.164  0.00  0.00    +0.176 C 
BRANCH  40  43
ATOM     41  C   LEU A   2      -2.527   1.116  20.022  0.00  0.00    +0.241 C 
ATOM     42  O   LEU A   2      -1.552   0.987  20.774  0.00  0.00    -0.273 OA
ATOM     43  N   THR A   3      -2.934   0.159  19.200  0.00  0.00    -0.295 N 
ATOM     44  H   THR A   3      -3.753   0.321  18.580  0.00  0.00    +0.150 HD
BRANCH  41  45
ATOM     45  CA  LEU A   2      -3.298   2.417  20.014  0.00  0.00    +0.149 C 
BRANCH  45  48
ATOM     46  C   SER A   1      -3.749   2.312  22.402  0.00  0.00    +0.241 C 
ATOM     47  O   SER A   1      -4.599   1.431  22.249  0.00  0.00    -0.274 OA
ATOM     48  N   LEU A   2      -3.103   2.876  21.387  0.00  0.00    -0.297 N 
ATOM     49  H   LEU A   2      -2.445   3.660  21.574  0.00  0.00    +0.150 HD
BRANCH  46  50
ATOM     50  CA  SER A   1      -3.370   2.821  23.796  0.00  0.00    +0.174 C 
BRANCH  50  51
ATOM     51  N   SER A   1      -4.078   2.121  24.874  0.00  0.00    -0.236 NA
ATOM     52  H   SER A   1      -4.239   1.097  24.785  0.00  0.00    +0.142 HD
ENDBRANCH  50  51
BRANCH  50  53
ATOM     53  CB  SER A   1      -1.865   2.579  23.946  0.00  0.00    +0.163 C 
BRANCH  53  54
ATOM     54  OG  SER A   1      -1.538   1.227  23.621  0.00  0.00    -0.380 OA
ATOM     55  H   SER A   1      -1.802   1.041  22.685  0.00  0.00    +0.211 HD
ENDBRANCH  53  54
ENDBRANCH  50  53
ENDBRANCH  46  50
ENDBRANCH  45  48
BRANCH  45  56
ATOM     56  CB  LEU A   2      -2.623   3.363  19.025  0.00  0.00    +0.029 C 
BRANCH  56  57
ATOM     57  CG  LEU A   2      -3.243   4.751  18.940  0.00  0.00    +0.002 C 
ATOM     58  CD2 LEU A   2      -4.651   4.636  18.365  0.00  0.00    +0.000 C 
ATOM     59  CD1 LEU A   2      -2.348   5.645  18.087  0.00  0.00    +0.000 C 
ENDBRANCH  56  57
ENDBRANCH  45  56
ENDBRANCH  41  45
ENDBRANCH  40  43
BRANCH  40  60
ATOM     60  CB  THR A   3      -3.213  -2.277  19.034  0.00  0.00    +0.137 C 
ATOM     61  CG2 THR A   3      -4.165  -2.314  20.235  0.00  0.00    +0.034 C 
BRANCH  60  62
ATOM     62  OG1 THR A   3      -3.971  -2.122  17.832  0.00  0.00    -0.382 OA
ATOM     63  HG1 THR A   3      -4.606  -2.876  17.744  0.00  0.00    +0.210 HD
ENDBRANCH  60  62
ENDBRANCH  40  60
ENDBRANCH  36  40
ENDBRANCH  35  38
BRANCH  35  64
ATOM     64  CB  THR A   4      -0.418   0.014  14.924  0.00  0.00    +0.137 C 
ATOM     65  CG2 THR A   4      -1.252  -1.197  14.567  0.00  0.00    +0.034 C 
BRANCH  64  66
ATOM     66  OG1 THR A   4      -1.205   1.201  14.790  0.00  0.00    -0.382 OA
ATOM     67  HG1 THR A   4      -0.639   1.993  14.970  0.00  0.00    +0.210 HD
ENDBRANCH  64  66
ENDBRANCH  35  64
ENDBRANCH   1  35
TORSDOF 26
REMARK  Name = ../refined-set-2016/1bn4/1bn4_pocket.pdb
REMARK  155 active torsions:
REMARK  status: ('A' for Active; 'I' for Inactive)
REMARK    1  A    between atoms: _1  and  _3
REMARK    2  A    between atoms: _3  and  _4
REMARK    3  A    between atoms: _3  and  _6
REMARK    4  A    between atoms: _6  and  _7
REMARK    5  A    between atoms: _17  and  _19
REMARK    6  A    between atoms: _19  and  _20
REMARK    7  A    between atoms: _19  and  _22
REMARK    8  A    between atoms: _22  and  _23
REMARK    9  A    between atoms: _28  and  _29
REMARK   10  A    between atoms: _31  and  _33
REMARK   11  A    between atoms: _33  and  _34
REMARK   12  A    between atoms: _33  and  _36
REMARK   13  A    between atoms: _36  and  _37
REMARK   14  A    between atoms: _40  and  _41
REMARK   15  A    between atoms: _46  and  _48
REMARK   16  A    between atoms: _48  and  _49
REMARK   17  A    between atoms: _48  and  _51
REMARK   18  A    between atoms: _51  and  _52
REMARK   19  A    between atoms: _57  and  _59
REMARK   20  A    between atoms: _59  and  _60
REMARK   21  A    between atoms: _59  and  _62
REMARK   22  A    between atoms: _62  and  _63
REMARK   23  A    between atoms: _68  and  _70
REMARK   24  A    between atoms: _70  and  _71
REMARK   25  A    between atoms: _70  and  _73
REMARK   26  A    between atoms: _73  and  _74
REMARK   27  A    between atoms: _77  and  _79
REMARK   28  A    between atoms: _79  and  _80
REMARK   29  A    between atoms: _79  and  _82
REMARK   30  A    between atoms: _82  and  _83
REMARK   31  A    between atoms: _83  and  _84
REMARK   32  A    between atoms: _89  and  _91
REMARK   33  A    between atoms: _91  and  _92
REMARK   34  A    between atoms: _91  and  _94
REMARK   35  A    between atoms: _94  and  _95
REMARK   36  A    between atoms: _101  and  _103
REMARK   37  A    between atoms: _114  and  _117
REMARK   38  A    between atoms: _117  and  _118
REMARK   39  A    between atoms: _126  and  _127
REMARK   40  A    between atoms: _135  and  _137
REMARK   41  A    between atoms: _137  and  _138
REMARK   42  A    between atoms: _137  and  _140
REMARK   43  A    between atoms: _140  and  _141
REMARK   44  A    between atoms: _141  and  _142
REMARK   45  A    between atoms: _145  and  _147
REMARK   46  A    between atoms: _147  and  _148
REMARK   47  A    between atoms: _147  and  _150
REMARK   48  A    between atoms: _150  and  _151
REMARK   49  A    between atoms: _156  and  _158
REMARK   50  A    between atoms: _158  and  _159
REMARK   51  A    between atoms: _158  and  _161
REMARK   52  A    between atoms: _161  and  _162
REMARK   53  A    between atoms: _162  and  _163
REMARK   54  A    between atoms: _166  and  _168
REMARK   55  A    between atoms: _168  and  _169
REMARK   56  A    between atoms: _168  and  _171
REMARK   57  A    between atoms: _171  and  _172
REMARK   58  A    between atoms: _175  and  _177
REMARK   59  A    between atoms: _177  and  _178
REMARK   60  A    between atoms: _177  and  _180
REMARK   61  A    between atoms: _180  and  _181
REMARK   62  A    between atoms: _182  and  ZN_428
REMARK   63  A    between atoms: _186  and  _188
REMARK   64  A    between atoms: _188  and  _189
REMARK   65  A    between atoms: _188  and  _191
REMARK   66  A    between atoms: _191  and  _192
REMARK   67  A    between atoms: _195  and  _197
REMARK   68  A    between atoms: _197  and  _198
REMARK   69  A    between atoms: _197  and  _200
REMARK   70  A    between atoms: _203  and  _205
REMARK   71  A    between atoms: _205  and  _206
REMARK   72  A    between atoms: _205  and  _208
REMARK   73  A    between atoms: _208  and  _209
REMARK   74  A    between atoms: _214  and  _216
REMARK   75  A    between atoms: _216  and  _217
REMARK   76  A    between atoms: _216  and  _219
REMARK   77  A    between atoms: _219  and  _220
REMARK   78  A    between atoms: _226  and  _228
REMARK   79  A    between atoms: _228  and  _229
REMARK   80  A    between atoms: _231  and  _233
REMARK   81  A    between atoms: _233  and  _234
REMARK   82  A    between atoms: _233  and  _236
REMARK   83  A    between atoms: _236  and  _237
REMARK   84  A    between atoms: _237  and  _238
REMARK   85  A    between atoms: _238  and  _239
REMARK   86  A    between atoms: _239  and  _240
REMARK   87  A    between atoms: _244  and  _246
REMARK   88  A    between atoms: _246  and  _247
REMARK   89  A    between atoms: _250  and  _252
REMARK   90  A    between atoms: _252  and  _253
REMARK   91  A    between atoms: _252  and  _255
REMARK   92  A    between atoms: _258  and  _260
REMARK   93  A    between atoms: _260  and  _261
REMARK   94  A    between atoms: _260  and  _263
REMARK   95  A    between atoms: _263  and  _264
REMARK   96  A    between atoms: _264  and  _265
REMARK   97  A    between atoms: _270  and  _272
REMARK   98  A    between atoms: _272  and  _273
REMARK   99  A    between atoms: _272  and  _275
REMARK  100  A    between atoms: _275  and  _276
REMARK  101  A    between atoms: _279  and  _281
REMARK  102  A    between atoms: _281  and  _282
REMARK  103  A    between atoms: _285  and  _287
REMARK  104  A    between atoms: _287  and  _288
REMARK  105  A    between atoms: _287  and  _290
REMARK  106  A    between atoms: _293  and  _295
REMARK  107  A    between atoms: _295  and  _296
REMARK  108  A    between atoms: _295  and  _298
REMARK  109  A    between atoms: _298  and  _299
REMARK  110  A    between atoms: _302  and  _304
REMARK  111  A    between atoms: _304  and  _305
REMARK  112  A    between atoms: _304  and  _307
REMARK  113  A    between atoms: _307  and  _308
REMARK  114  A    between atoms: _310  and  _312
REMARK  115  A    between atoms: _312  and  _313
REMARK  116  A    between atoms: _312  and  _315
REMARK  117  A    between atoms: _315  and  _316
REMARK  118  A    between atoms: _319  and  _321
REMARK  119  A    between atoms: _321  and  _322
REMARK  120  A    between atoms: _321  and  _324
REMARK  121  A    between atoms: _324  and  _325
REMARK  122  A    between atoms: _328  and  _330
REMARK  123  A    between atoms: _330  and  _331
REMARK  124  A    between atoms: _330  and  _333
REMARK  125  A    between atoms: _333  and  _334
REMARK  126  A    between atoms: _338  and  _339
REMARK  127  A    between atoms: _345  and  _346
REMARK  128  A    between atoms: _351  and  _353
REMARK  129  A    between atoms: _353  and  _354
REMARK  130  A    between atoms: _353  and  _356
REMARK  131  A    between atoms: _356  and  _357
REMARK  132  A    between atoms: _360  and  _362
REMARK  133  A    between atoms: _362  and  _363
REMARK  134  A    between atoms: _362  and  _365
REMARK  135  A    between atoms: _365  and  _366
REMARK  136  A    between atoms: _369  and  _371
REMARK  137  A    between atoms: _371  and  _372
REMARK  138  A    between atoms: _371  and  _374
REMARK  139  A    between atoms: _376  and  _378
REMARK  140  A    between atoms: _378  and  _379
REMARK  141  A    between atoms: _378  and  _381
REMARK  142  A    between atoms: _384  and  _386
REMARK  143  A    between atoms: _386  and  _387
REMARK  144  A    between atoms: _386  and  _389
REMARK  145  A    between atoms: _389  and  _390
REMARK  146  A    between atoms: _400  and  _402
REMARK  147  A    between atoms: _402  and  _403
REMARK  148  A    between atoms: _402  and  _405
REMARK  149  A    between atoms: _405  and  _406
REMARK  150  A    between atoms: _411  and  _413
REMARK  151  A    between atoms: _413  and  _414
REMARK  152  A    between atoms: _413  and  _416
REMARK  153  A    between atoms: _416  and  _417
REMARK  154  A    between atoms: _417  and  _418
REMARK  155  A    between atoms: _418  and  _419
REMARK                            x       y       z     vdW  Elec       q    Type
REMARK                         _______ _______ _______ _____ _____    ______ ____
ROOT
ATOM      1  C   CYS A   1      -6.187   7.574  24.350  0.00  0.00    +0.239 C 
ATOM      2  N   VAL A   2      -6.224   6.258  24.515  0.00  0.00    -0.298 N 
ATOM      3  H   VAL A   2      -5.366   5.749  24.809  0.00  0.00    +0.150 HD
ATOM      4  O   CYS A   1      -7.194   8.246  24.151  0.00  0.00    -0.274 OA
ENDROOT
BRANCH   1   5
ATOM      5  CA  CYS A   1      -4.835   8.257  24.477  0.00  0.00    +0.156 C 
BRANCH   5   6
ATOM      6  N   CYS A   1      -3.745   7.282  24.472  0.00  0.00    -0.237 NA
ATOM      7  H   CYS A   1      -3.682   6.605  23.685  0.00  0.00    +0.142 HD
ENDBRANCH   5   6
BRANCH   5   8
ATOM      8  CB  CYS A   1      -4.689   9.181  23.254  0.00  0.00    +0.095 C 
ATOM      9  SG  CYS A   1      -2.982   9.682  22.863  0.00  0.00    -0.080 S 
ENDBRANCH   5   8
ENDBRANCH   1   5
BRANCH   2  10
ATOM     10  CA  VAL A   2      -7.462   5.522  24.286  0.00  0.00    +0.137 C 
BRANCH  10  11
ATOM     11  CB  VAL A   2      -7.196   4.325  23.323  0.00  0.00    +0.026 C 
ATOM     12  CG2 VAL A   2      -8.505   3.671  22.902  0.00  0.00    +0.002 C 
ATOM     13  CG1 VAL A   2      -6.399   4.777  22.102  0.00  0.00    +0.002 C 
ENDBRANCH  10  11
BRANCH  10  14
ATOM     14  C   VAL A   2      -8.282   4.963  25.436  0.00  0.00    +0.227 C 
ATOM     15  O   VAL A   2      -7.760   4.298  26.322  0.00  0.00    -0.286 OA
ENDBRANCH  10  14
ENDBRANCH   2  10
TORSDOF 6
REMARK  Name = ../refined-set-2016/1bn4/1bn4_pocket.pdb
REMARK  155 active torsions:
REMARK  status: ('A' for Active; 'I' for Inactive)
REMARK    1  A    between atoms: _1  and  _3
REMARK    2  A    between atoms: _3  and  _4
REMARK    3  A    between atoms: _3  and  _6
REMARK    4  A    between atoms: _6  and  _7
REMARK    5  A    between atoms: _17  and  _19
REMARK    6  A    between atoms: _19  and  _20
REMARK    7  A    between atoms: _19  and  _22
REMARK    8  A    between atoms: _22  and  _23
REMARK    9  A    between atoms: _28  and  _29
REMARK   10  A    between atoms: _31  and  _33
REMARK   11  A    between atoms: _33  and  _34
REMARK   12  A    between atoms: _33  and  _36
REMARK   13  A    between atoms: _36  and  _37
REMARK   14  A    between atoms: _40  and  _41
REMARK   15  A    between atoms: _46  and  _48
REMARK   16  A    between atoms: _48  and  _49
REMARK   17  A    between atoms: _48  and  _51
REMARK   18  A    between atoms: _51  and  _52
REMARK   19  A    between atoms: _57  and  _59
REMARK   20  A    between atoms: _59  and  _60
REMARK   21  A    between atoms: _59  and  _62
REMARK   22  A    between atoms: _62  and  _63
REMARK   23  A    between atoms: _68  and  _70
REMARK   24  A    between atoms: _70  and  _71
REMARK   25  A    between atoms: _70  and  _73
REMARK   26  A    between atoms: _73  and  _74
REMARK   27  A    between atoms: _77  and  _79
REMARK   28  A    between atoms: _79  and  _80
REMARK   29  A    between atoms: _79  and  _82
REMARK   30  A    between atoms: _82  and  _83
REMARK   31  A    between atoms: _83  and  _84
REMARK   32  A    between atoms: _89  and  _91
REMARK   33  A    between atoms: _91  and  _92
REMARK   34  A    between atoms: _91  and  _94
REMARK   35  A    between atoms: _94  and  _95
REMARK   36  A    between atoms: _101  and  _103
REMARK   37  A    between atoms: _114  and  _117
REMARK   38  A    between atoms: _117  and  _118
REMARK   39  A    between atoms: _126  and  _127
REMARK   40  A    between atoms: _135  and  _137
REMARK   41  A    between atoms: _137  and  _138
REMARK   42  A    between atoms: _137  and  _140
REMARK   43  A    between atoms: _140  and  _141
REMARK   44  A    between atoms: _141  and  _142
REMARK   45  A    between atoms: _145  and  _147
REMARK   46  A    between atoms: _147  and  _148
REMARK   47  A    between atoms: _147  and  _150
REMARK   48  A    between atoms: _150  and  _151
REMARK   49  A    between atoms: _156  and  _158
REMARK   50  A    between atoms: _158  and  _159
REMARK   51  A    between atoms: _158  and  _161
REMARK   52  A    between atoms: _161  and  _162
REMARK   53  A    between atoms: _162  and  _163
REMARK   54  A    between atoms: _166  and  _168
REMARK   55  A    between atoms: _168  and  _169
REMARK   56  A    between atoms: _168  and  _171
REMARK   57  A    between atoms: _171  and  _172
REMARK   58  A    between atoms: _175  and  _177
REMARK   59  A    between atoms: _177  and  _178
REMARK   60  A    between atoms: _177  and  _180
REMARK   61  A    between atoms: _180  and  _181
REMARK   62  A    between atoms: _182  and  ZN_428
REMARK   63  A    between atoms: _186  and  _188
REMARK   64  A    between atoms: _188  and  _189
REMARK   65  A    between atoms: _188  and  _191
REMARK   66  A    between atoms: _191  and  _192
REMARK   67  A    between atoms: _195  and  _197
REMARK   68  A    between atoms: _197  and  _198
REMARK   69  A    between atoms: _197  and  _200
REMARK   70  A    between atoms: _203  and  _205
REMARK   71  A    between atoms: _205  and  _206
REMARK   72  A    between atoms: _205  and  _208
REMARK   73  A    between atoms: _208  and  _209
REMARK   74  A    between atoms: _214  and  _216
REMARK   75  A    between atoms: _216  and  _217
REMARK   76  A    between atoms: _216  and  _219
REMARK   77  A    between atoms: _219  and  _220
REMARK   78  A    between atoms: _226  and  _228
REMARK   79  A    between atoms: _228  and  _229
REMARK   80  A    between atoms: _231  and  _233
REMARK   81  A    between atoms: _233  and  _234
REMARK   82  A    between atoms: _233  and  _236
REMARK   83  A    between atoms: _236  and  _237
REMARK   84  A    between atoms: _237  and  _238
REMARK   85  A    between atoms: _238  and  _239
REMARK   86  A    between atoms: _239  and  _240
REMARK   87  A    between atoms: _244  and  _246
REMARK   88  A    between atoms: _246  and  _247
REMARK   89  A    between atoms: _250  and  _252
REMARK   90  A    between atoms: _252  and  _253
REMARK   91  A    between atoms: _252  and  _255
REMARK   92  A    between atoms: _258  and  _260
REMARK   93  A    between atoms: _260  and  _261
REMARK   94  A    between atoms: _260  and  _263
REMARK   95  A    between atoms: _263  and  _264
REMARK   96  A    between atoms: _264  and  _265
REMARK   97  A    between atoms: _270  and  _272
REMARK   98  A    between atoms: _272  and  _273
REMARK   99  A    between atoms: _272  and  _275
REMARK  100  A    between atoms: _275  and  _276
REMARK  101  A    between atoms: _279  and  _281
REMARK  102  A    between atoms: _281  and  _282
REMARK  103  A    between atoms: _285  and  _287
REMARK  104  A    between atoms: _287  and  _288
REMARK  105  A    between atoms: _287  and  _290
REMARK  106  A    between atoms: _293  and  _295
REMARK  107  A    between atoms: _295  and  _296
REMARK  108  A    between atoms: _295  and  _298
REMARK  109  A    between atoms: _298  and  _299
REMARK  110  A    between atoms: _302  and  _304
REMARK  111  A    between atoms: _304  and  _305
REMARK  112  A    between atoms: _304  and  _307
REMARK  113  A    between atoms: _307  and  _308
REMARK  114  A    between atoms: _310  and  _312
REMARK  115  A    between atoms: _312  and  _313
REMARK  116  A    between atoms: _312  and  _315
REMARK  117  A    between atoms: _315  and  _316
REMARK  118  A    between atoms: _319  and  _321
REMARK  119  A    between atoms: _321  and  _322
REMARK  120  A    between atoms: _321  and  _324
REMARK  121  A    between atoms: _324  and  _325
REMARK  122  A    between atoms: _328  and  _330
REMARK  123  A    between atoms: _330  and  _331
REMARK  124  A    between atoms: _330  and  _333
REMARK  125  A    between atoms: _333  and  _334
REMARK  126  A    between atoms: _338  and  _339
REMARK  127  A    between atoms: _345  and  _346
REMARK  128  A    between atoms: _351  and  _353
REMARK  129  A    between atoms: _353  and  _354
REMARK  130  A    between atoms: _353  and  _356
REMARK  131  A    between atoms: _356  and  _357
REMARK  132  A    between atoms: _360  and  _362
REMARK  133  A    between atoms: _362  and  _363
REMARK  134  A    between atoms: _362  and  _365
REMARK  135  A    between atoms: _365  and  _366
REMARK  136  A    between atoms: _369  and  _371
REMARK  137  A    between atoms: _371  and  _372
REMARK  138  A    between atoms: _371  and  _374
REMARK  139  A    between atoms: _376  and  _378
REMARK  140  A    between atoms: _378  and  _379
REMARK  141  A    between atoms: _378  and  _381
REMARK  142  A    between atoms: _384  and  _386
REMARK  143  A    between atoms: _386  and  _387
REMARK  144  A    between atoms: _386  and  _389
REMARK  145  A    between atoms: _389  and  _390
REMARK  146  A    between atoms: _400  and  _402
REMARK  147  A    between atoms: _402  and  _403
REMARK  148  A    between atoms: _402  and  _405
REMARK  149  A    between atoms: _405  and  _406
REMARK  150  A    between atoms: _411  and  _413
REMARK  151  A    between atoms: _413  and  _414
REMARK  152  A    between atoms: _413  and  _416
REMARK  153  A    between atoms: _416  and  _417
REMARK  154  A    between atoms: _417  and  _418
REMARK  155  A    between atoms: _418  and  _419
REMARK                            x       y       z     vdW  Elec       q    Type
REMARK                         _______ _______ _______ _____ _____    ______ ____
ROOT
ATOM      1  CG  TRP A   1      -9.023   0.040  24.309  0.00  0.00    -0.002 A 
ATOM      2  CD1 TRP A   1      -7.779   0.594  24.463  0.00  0.00    +0.068 A 
ATOM      3  NE1 TRP A   1      -7.069   0.480  23.292  0.00  0.00    -0.352 N 
ATOM      4  HE1 TRP A   1      -6.099   0.822  23.139  0.00  0.00    +0.166 HD
ATOM      5  CE2 TRP A   1      -7.844  -0.157  22.357  0.00  0.00    +0.056 A 
ATOM      6  CZ2 TRP A   1      -7.561  -0.503  21.032  0.00  0.00    +0.017 A 
ATOM      7  CH2 TRP A   1      -8.544  -1.144  20.322  0.00  0.00    +0.001 A 
ATOM      8  CZ3 TRP A   1      -9.795  -1.446  20.898  0.00  0.00    +0.000 A 
ATOM      9  CE3 TRP A   1     -10.075  -1.104  22.211  0.00  0.00    +0.001 A 
ATOM     10  CD2 TRP A   1      -9.086  -0.448  22.964  0.00  0.00    +0.013 A 
ENDROOT
BRANCH   1  11
ATOM     11  CB  TRP A   1     -10.098  -0.036  25.317  0.00  0.00    +0.053 C 
BRANCH  11  12
ATOM     12  CA  TRP A   1     -11.109   1.092  25.177  0.00  0.00    +0.137 C 
BRANCH  12  13
ATOM     13  N   TRP A   1     -10.661   2.257  25.902  0.00  0.00    -0.239 NA
ATOM     14  H   TRP A   1     -10.041   2.140  26.728  0.00  0.00    +0.142 HD
ENDBRANCH  12  13
BRANCH  12  15
ATOM     15  C   TRP A   1     -12.458   0.631  25.670  0.00  0.00    +0.224 C 
ATOM     16  O   TRP A   1     -12.717   0.628  26.870  0.00  0.00    -0.287 OA
ENDBRANCH  12  15
ENDBRANCH  11  12
ENDBRANCH   1  11
TORSDOF 4
REMARK  Name = ../refined-set-2016/1bn4/1bn4_pocket.pdb
REMARK  155 active torsions:
REMARK  status: ('A' for Active; 'I' for Inactive)
REMARK    1  A    between atoms: _1  and  _3
REMARK    2  A    between atoms: _3  and  _4
REMARK    3  A    between atoms: _3  and  _6
REMARK    4  A    between atoms: _6  and  _7
REMARK    5  A    between atoms: _17  and  _19
REMARK    6  A    between atoms: _19  and  _20
REMARK    7  A    between atoms: _19  and  _22
REMARK    8  A    between atoms: _22  and  _23
REMARK    9  A    between atoms: _28  and  _29
REMARK   10  A    between atoms: _31  and  _33
REMARK   11  A    between atoms: _33  and  _34
REMARK   12  A    between atoms: _33  and  _36
REMARK   13  A    between atoms: _36  and  _37
REMARK   14  A    between atoms: _40  and  _41
REMARK   15  A    between atoms: _46  and  _48
REMARK   16  A    between atoms: _48  and  _49
REMARK   17  A    between atoms: _48  and  _51
REMARK   18  A    between atoms: _51  and  _52
REMARK   19  A    between atoms: _57  and  _59
REMARK   20  A    between atoms: _59  and  _60
REMARK   21  A    between atoms: _59  and  _62
REMARK   22  A    between atoms: _62  and  _63
REMARK   23  A    between atoms: _68  and  _70
REMARK   24  A    between atoms: _70  and  _71
REMARK   25  A    between atoms: _70  and  _73
REMARK   26  A    between atoms: _73  and  _74
REMARK   27  A    between atoms: _77  and  _79
REMARK   28  A    between atoms: _79  and  _80
REMARK   29  A    between atoms: _79  and  _82
REMARK   30  A    between atoms: _82  and  _83
REMARK   31  A    between atoms: _83  and  _84
REMARK   32  A    between atoms: _89  and  _91
REMARK   33  A    between atoms: _91  and  _92
REMARK   34  A    between atoms: _91  and  _94
REMARK   35  A    between atoms: _94  and  _95
REMARK   36  A    between atoms: _101  and  _103
REMARK   37  A    between atoms: _114  and  _117
REMARK   38  A    between atoms: _117  and  _118
REMARK   39  A    between atoms: _126  and  _127
REMARK   40  A    between atoms: _135  and  _137
REMARK   41  A    between atoms: _137  and  _138
REMARK   42  A    between atoms: _137  and  _140
REMARK   43  A    between atoms: _140  and  _141
REMARK   44  A    between atoms: _141  and  _142
REMARK   45  A    between atoms: _145  and  _147
REMARK   46  A    between atoms: _147  and  _148
REMARK   47  A    between atoms: _147  and  _150
REMARK   48  A    between atoms: _150  and  _151
REMARK   49  A    between atoms: _156  and  _158
REMARK   50  A    between atoms: _158  and  _159
REMARK   51  A    between atoms: _158  and  _161
REMARK   52  A    between atoms: _161  and  _162
REMARK   53  A    between atoms: _162  and  _163
REMARK   54  A    between atoms: _166  and  _168
REMARK   55  A    between atoms: _168  and  _169
REMARK   56  A    between atoms: _168  and  _171
REMARK   57  A    between atoms: _171  and  _172
REMARK   58  A    between atoms: _175  and  _177
REMARK   59  A    between atoms: _177  and  _178
REMARK   60  A    between atoms: _177  and  _180
REMARK   61  A    between atoms: _180  and  _181
REMARK   62  A    between atoms: _182  and  ZN_428
REMARK   63  A    between atoms: _186  and  _188
REMARK   64  A    between atoms: _188  and  _189
REMARK   65  A    between atoms: _188  and  _191
REMARK   66  A    between atoms: _191  and  _192
REMARK   67  A    between atoms: _195  and  _197
REMARK   68  A    between atoms: _197  and  _198
REMARK   69  A    between atoms: _197  and  _200
REMARK   70  A    between atoms: _203  and  _205
REMARK   71  A    between atoms: _205  and  _206
REMARK   72  A    between atoms: _205  and  _208
REMARK   73  A    between atoms: _208  and  _209
REMARK   74  A    between atoms: _214  and  _216
REMARK   75  A    between atoms: _216  and  _217
REMARK   76  A    between atoms: _216  and  _219
REMARK   77  A    between atoms: _219  and  _220
REMARK   78  A    between atoms: _226  and  _228
REMARK   79  A    between atoms: _228  and  _229
REMARK   80  A    between atoms: _231  and  _233
REMARK   81  A    between atoms: _233  and  _234
REMARK   82  A    between atoms: _233  and  _236
REMARK   83  A    between atoms: _236  and  _237
REMARK   84  A    between atoms: _237  and  _238
REMARK   85  A    between atoms: _238  and  _239
REMARK   86  A    between atoms: _239  and  _240
REMARK   87  A    between atoms: _244  and  _246
REMARK   88  A    between atoms: _246  and  _247
REMARK   89  A    between atoms: _250  and  _252
REMARK   90  A    between atoms: _252  and  _253
REMARK   91  A    between atoms: _252  and  _255
REMARK   92  A    between atoms: _258  and  _260
REMARK   93  A    between atoms: _260  and  _261
REMARK   94  A    between atoms: _260  and  _263
REMARK   95  A    between atoms: _263  and  _264
REMARK   96  A    between atoms: _264  and  _265
REMARK   97  A    between atoms: _270  and  _272
REMARK   98  A    between atoms: _272  and  _273
REMARK   99  A    between atoms: _272  and  _275
REMARK  100  A    between atoms: _275  and  _276
REMARK  101  A    between atoms: _279  and  _281
REMARK  102  A    between atoms: _281  and  _282
REMARK  103  A    between atoms: _285  and  _287
REMARK  104  A    between atoms: _287  and  _288
REMARK  105  A    between atoms: _287  and  _290
REMARK  106  A    between atoms: _293  and  _295
REMARK  107  A    between atoms: _295  and  _296
REMARK  108  A    between atoms: _295  and  _298
REMARK  109  A    between atoms: _298  and  _299
REMARK  110  A    between atoms: _302  and  _304
REMARK  111  A    between atoms: _304  and  _305
REMARK  112  A    between atoms: _304  and  _307
REMARK  113  A    between atoms: _307  and  _308
REMARK  114  A    between atoms: _310  and  _312
REMARK  115  A    between atoms: _312  and  _313
REMARK  116  A    between atoms: _312  and  _315
REMARK  117  A    between atoms: _315  and  _316
REMARK  118  A    between atoms: _319  and  _321
REMARK  119  A    between atoms: _321  and  _322
REMARK  120  A    between atoms: _321  and  _324
REMARK  121  A    between atoms: _324  and  _325
REMARK  122  A    between atoms: _328  and  _330
REMARK  123  A    between atoms: _330  and  _331
REMARK  124  A    between atoms: _330  and  _333
REMARK  125  A    between atoms: _333  and  _334
REMARK  126  A    between atoms: _338  and  _339
REMARK  127  A    between atoms: _345  and  _346
REMARK  128  A    between atoms: _351  and  _353
REMARK  129  A    between atoms: _353  and  _354
REMARK  130  A    between atoms: _353  and  _356
REMARK  131  A    between atoms: _356  and  _357
REMARK  132  A    between atoms: _360  and  _362
REMARK  133  A    between atoms: _362  and  _363
REMARK  134  A    between atoms: _362  and  _365
REMARK  135  A    between atoms: _365  and  _366
REMARK  136  A    between atoms: _369  and  _371
REMARK  137  A    between atoms: _371  and  _372
REMARK  138  A    between atoms: _371  and  _374
REMARK  139  A    between atoms: _376  and  _378
REMARK  140  A    between atoms: _378  and  _379
REMARK  141  A    between atoms: _378  and  _381
REMARK  142  A    between atoms: _384  and  _386
REMARK  143  A    between atoms: _386  and  _387
REMARK  144  A    between atoms: _386  and  _389
REMARK  145  A    between atoms: _389  and  _390
REMARK  146  A    between atoms: _400  and  _402
REMARK  147  A    between atoms: _402  and  _403
REMARK  148  A    between atoms: _402  and  _405
REMARK  149  A    between atoms: _405  and  _406
REMARK  150  A    between atoms: _411  and  _413
REMARK  151  A    between atoms: _413  and  _414
REMARK  152  A    between atoms: _413  and  _416
REMARK  153  A    between atoms: _416  and  _417
REMARK  154  A    between atoms: _417  and  _418
REMARK  155  A    between atoms: _418  and  _419
REMARK                            x       y       z     vdW  Elec       q    Type
REMARK                         _______ _______ _______ _____ _____    ______ ____
ROOT
ATOM      1  CB  ASN A   1      -2.159  -7.161  10.537  0.00  0.00    +0.110 C 
ENDROOT
BRANCH   1   2
ATOM      2  CG  ASN A   1      -3.658  -7.321  10.334  0.00  0.00    +0.221 C 
ATOM      3  OD1 ASN A   1      -4.287  -8.250  10.856  0.00  0.00    -0.275 OA
ATOM      4  ND2 ASN A   1      -4.235  -6.422   9.555  0.00  0.00    -0.329 N 
ATOM      5 HD21 ASN A   1      -5.255  -6.480   9.361  0.00  0.00    +0.145 HD
ATOM      6 HD22 ASN A   1      -3.669  -5.657   9.136  0.00  0.00    +0.145 HD
ENDBRANCH   1   2
BRANCH   1   7
ATOM      7  CA  ASN A   1      -1.599  -8.069  11.643  0.00  0.00    +0.142 C 
BRANCH   7   8
ATOM      8  N   ASN A   1      -1.941  -9.461  11.398  0.00  0.00    -0.239 NA
ATOM      9  H   ASN A   1      -2.846  -9.692  10.942  0.00  0.00    +0.142 HD
ENDBRANCH   7   8
BRANCH   7  10
ATOM     10  C   ASN A   1      -2.131  -7.650  13.025  0.00  0.00    +0.225 C 
ATOM     11  O   ASN A   1      -2.770  -6.610  13.164  0.00  0.00    -0.287 OA
ENDBRANCH   7  10
ENDBRANCH   1   7
TORSDOF 4
REMARK  Name = ../refined-set-2016/1bn4/1bn4_pocket.pdb
REMARK  155 active torsions:
REMARK  status: ('A' for Active; 'I' for Inactive)
REMARK    1  A    between atoms: _1  and  _3
REMARK    2  A    between atoms: _3  and  _4
REMARK    3  A    between atoms: _3  and  _6
REMARK    4  A    between atoms: _6  and  _7
REMARK    5  A    between atoms: _17  and  _19
REMARK    6  A    between atoms: _19  and  _20
REMARK    7  A    between atoms: _19  and  _22
REMARK    8  A    between atoms: _22  and  _23
REMARK    9  A    between atoms: _28  and  _29
REMARK   10  A    between atoms: _31  and  _33
REMARK   11  A    between atoms: _33  and  _34
REMARK   12  A    between atoms: _33  and  _36
REMARK   13  A    between atoms: _36  and  _37
REMARK   14  A    between atoms: _40  and  _41
REMARK   15  A    between atoms: _46  and  _48
REMARK   16  A    between atoms: _48  and  _49
REMARK   17  A    between atoms: _48  and  _51
REMARK   18  A    between atoms: _51  and  _52
REMARK   19  A    between atoms: _57  and  _59
REMARK   20  A    between atoms: _59  and  _60
REMARK   21  A    between atoms: _59  and  _62
REMARK   22  A    between atoms: _62  and  _63
REMARK   23  A    between atoms: _68  and  _70
REMARK   24  A    between atoms: _70  and  _71
REMARK   25  A    between atoms: _70  and  _73
REMARK   26  A    between atoms: _73  and  _74
REMARK   27  A    between atoms: _77  and  _79
REMARK   28  A    between atoms: _79  and  _80
REMARK   29  A    between atoms: _79  and  _82
REMARK   30  A    between atoms: _82  and  _83
REMARK   31  A    between atoms: _83  and  _84
REMARK   32  A    between atoms: _89  and  _91
REMARK   33  A    between atoms: _91  and  _92
REMARK   34  A    between atoms: _91  and  _94
REMARK   35  A    between atoms: _94  and  _95
REMARK   36  A    between atoms: _101  and  _103
REMARK   37  A    between atoms: _114  and  _117
REMARK   38  A    between atoms: _117  and  _118
REMARK   39  A    between atoms: _126  and  _127
REMARK   40  A    between atoms: _135  and  _137
REMARK   41  A    between atoms: _137  and  _138
REMARK   42  A    between atoms: _137  and  _140
REMARK   43  A    between atoms: _140  and  _141
REMARK   44  A    between atoms: _141  and  _142
REMARK   45  A    between atoms: _145  and  _147
REMARK   46  A    between atoms: _147  and  _148
REMARK   47  A    between atoms: _147  and  _150
REMARK   48  A    between atoms: _150  and  _151
REMARK   49  A    between atoms: _156  and  _158
REMARK   50  A    between atoms: _158  and  _159
REMARK   51  A    between atoms: _158  and  _161
REMARK   52  A    between atoms: _161  and  _162
REMARK   53  A    between atoms: _162  and  _163
REMARK   54  A    between atoms: _166  and  _168
REMARK   55  A    between atoms: _168  and  _169
REMARK   56  A    between atoms: _168  and  _171
REMARK   57  A    between atoms: _171  and  _172
REMARK   58  A    between atoms: _175  and  _177
REMARK   59  A    between atoms: _177  and  _178
REMARK   60  A    between atoms: _177  and  _180
REMARK   61  A    between atoms: _180  and  _181
REMARK   62  A    between atoms: _182  and  ZN_428
REMARK   63  A    between atoms: _186  and  _188
REMARK   64  A    between atoms: _188  and  _189
REMARK   65  A    between atoms: _188  and  _191
REMARK   66  A    between atoms: _191  and  _192
REMARK   67  A    between atoms: _195  and  _197
REMARK   68  A    between atoms: _197  and  _198
REMARK   69  A    between atoms: _197  and  _200
REMARK   70  A    between atoms: _203  and  _205
REMARK   71  A    between atoms: _205  and  _206
REMARK   72  A    between atoms: _205  and  _208
REMARK   73  A    between atoms: _208  and  _209
REMARK   74  A    between atoms: _214  and  _216
REMARK   75  A    between atoms: _216  and  _217
REMARK   76  A    between atoms: _216  and  _219
REMARK   77  A    between atoms: _219  and  _220
REMARK   78  A    between atoms: _226  and  _228
REMARK   79  A    between atoms: _228  and  _229
REMARK   80  A    between atoms: _231  and  _233
REMARK   81  A    between atoms: _233  and  _234
REMARK   82  A    between atoms: _233  and  _236
REMARK   83  A    between atoms: _236  and  _237
REMARK   84  A    between atoms: _237  and  _238
REMARK   85  A    between atoms: _238  and  _239
REMARK   86  A    between atoms: _239  and  _240
REMARK   87  A    between atoms: _244  and  _246
REMARK   88  A    between atoms: _246  and  _247
REMARK   89  A    between atoms: _250  and  _252
REMARK   90  A    between atoms: _252  and  _253
REMARK   91  A    between atoms: _252  and  _255
REMARK   92  A    between atoms: _258  and  _260
REMARK   93  A    between atoms: _260  and  _261
REMARK   94  A    between atoms: _260  and  _263
REMARK   95  A    between atoms: _263  and  _264
REMARK   96  A    between atoms: _264  and  _265
REMARK   97  A    between atoms: _270  and  _272
REMARK   98  A    between atoms: _272  and  _273
REMARK   99  A    between atoms: _272  and  _275
REMARK  100  A    between atoms: _275  and  _276
REMARK  101  A    between atoms: _279  and  _281
REMARK  102  A    between atoms: _281  and  _282
REMARK  103  A    between atoms: _285  and  _287
REMARK  104  A    between atoms: _287  and  _288
REMARK  105  A    between atoms: _287  and  _290
REMARK  106  A    between atoms: _293  and  _295
REMARK  107  A    between atoms: _295  and  _296
REMARK  108  A    between atoms: _295  and  _298
REMARK  109  A    between atoms: _298  and  _299
REMARK  110  A    between atoms: _302  and  _304
REMARK  111  A    between atoms: _304  and  _305
REMARK  112  A    between atoms: _304  and  _307
REMARK  113  A    between atoms: _307  and  _308
REMARK  114  A    between atoms: _310  and  _312
REMARK  115  A    between atoms: _312  and  _313
REMARK  116  A    between atoms: _312  and  _315
REMARK  117  A    between atoms: _315  and  _316
REMARK  118  A    between atoms: _319  and  _321
REMARK  119  A    between atoms: _321  and  _322
REMARK  120  A    between atoms: _321  and  _324
REMARK  121  A    between atoms: _324  and  _325
REMARK  122  A    between atoms: _328  and  _330
REMARK  123  A    between atoms: _330  and  _331
REMARK  124  A    between atoms: _330  and  _333
REMARK  125  A    between atoms: _333  and  _334
REMARK  126  A    between atoms: _338  and  _339
REMARK  127  A    between atoms: _345  and  _346
REMARK  128  A    between atoms: _351  and  _353
REMARK  129  A    between atoms: _353  and  _354
REMARK  130  A    between atoms: _353  and  _356
REMARK  131  A    between atoms: _356  and  _357
REMARK  132  A    between atoms: _360  and  _362
REMARK  133  A    between atoms: _362  and  _363
REMARK  134  A    between atoms: _362  and  _365
REMARK  135  A    between atoms: _365  and  _366
REMARK  136  A    between atoms: _369  and  _371
REMARK  137  A    between atoms: _371  and  _372
REMARK  138  A    between atoms: _371  and  _374
REMARK  139  A    between atoms: _376  and  _378
REMARK  140  A    between atoms: _378  and  _379
REMARK  141  A    between atoms: _378  and  _381
REMARK  142  A    between atoms: _384  and  _386
REMARK  143  A    between atoms: _386  and  _387
REMARK  144  A    between atoms: _386  and  _389
REMARK  145  A    between atoms: _389  and  _390
REMARK  146  A    between atoms: _400  and  _402
REMARK  147  A    between atoms: _402  and  _403
REMARK  148  A    between atoms: _402  and  _405
REMARK  149  A    between atoms: _405  and  _406
REMARK  150  A    between atoms: _411  and  _413
REMARK  151  A    between atoms: _413  and  _414
REMARK  152  A    between atoms: _413  and  _416
REMARK  153  A    between atoms: _416  and  _417
REMARK  154  A    between atoms: _417  and  _418
REMARK  155  A    between atoms: _418  and  _419
REMARK                            x       y       z     vdW  Elec       q    Type
REMARK                         _______ _______ _______ _____ _____    ______ ____
ROOT
ATOM      1  NE  ARG A   1       2.030  -3.790  21.239  0.00  0.00    -0.265 N 
ATOM      2  CZ  ARG A   1       2.166  -2.793  22.104  0.00  0.00    +0.342 C 
ATOM      3  NH2 ARG A   1       3.368  -2.522  22.590  0.00  0.00    -0.292 N 
ATOM      4 HH21 ARG A   1       3.491  -1.744  23.269  0.00  0.00    +0.255 HD
ATOM      5 HH22 ARG A   1       4.189  -3.087  22.293  0.00  0.00    +0.255 HD
ATOM      6  NH1 ARG A   1       1.124  -2.040  22.441  0.00  0.00    -0.292 N 
ATOM      7 HH11 ARG A   1       1.243  -1.261  23.120  0.00  0.00    +0.255 HD
ATOM      8 HH12 ARG A   1       0.190  -2.229  22.026  0.00  0.00    +0.255 HD
ATOM      9  HE  ARG A   1       2.877  -4.352  21.020  0.00  0.00    +0.259 HD
ENDROOT
BRANCH   1  10
ATOM     10  CD  ARG A   1       0.790  -4.160  20.572  0.00  0.00    +0.174 C 
BRANCH  10  11
ATOM     11  CG  ARG A   1       0.954  -5.503  19.890  0.00  0.00    +0.045 C 
BRANCH  11  12
ATOM     12  CB  ARG A   1      -0.174  -5.772  18.914  0.00  0.00    +0.029 C 
BRANCH  12  13
ATOM     13  CA  ARG A   1      -0.268  -7.234  18.469  0.00  0.00    +0.133 C 
BRANCH  13  14
ATOM     14  N   ARG A   1      -1.287  -7.372  17.447  0.00  0.00    -0.239 NA
ATOM     15  H   ARG A   1      -2.179  -6.848  17.550  0.00  0.00    +0.142 HD
ENDBRANCH  13  14
BRANCH  13  16
ATOM     16  C   ARG A   1      -0.657  -8.102  19.664  0.00  0.00    +0.224 C 
ATOM     17  O   ARG A   1      -1.838  -8.181  20.018  0.00  0.00    -0.287 OA
ENDBRANCH  13  16
ENDBRANCH  12  13
ENDBRANCH  11  12
ENDBRANCH  10  11
ENDBRANCH   1  10
TORSDOF 6
REMARK  Name = ../refined-set-2016/1bn4/1bn4_pocket.pdb
REMARK  155 active torsions:
REMARK  status: ('A' for Active; 'I' for Inactive)
REMARK    1  A    between atoms: _1  and  _3
REMARK    2  A    between atoms: _3  and  _4
REMARK    3  A    between atoms: _3  and  _6
REMARK    4  A    between atoms: _6  and  _7
REMARK    5  A    between atoms: _17  and  _19
REMARK    6  A    between atoms: _19  and  _20
REMARK    7  A    between atoms: _19  and  _22
REMARK    8  A    between atoms: _22  and  _23
REMARK    9  A    between atoms: _28  and  _29
REMARK   10  A    between atoms: _31  and  _33
REMARK   11  A    between atoms: _33  and  _34
REMARK   12  A    between atoms: _33  and  _36
REMARK   13  A    between atoms: _36  and  _37
REMARK   14  A    between atoms: _40  and  _41
REMARK   15  A    between atoms: _46  and  _48
REMARK   16  A    between atoms: _48  and  _49
REMARK   17  A    between atoms: _48  and  _51
REMARK   18  A    between atoms: _51  and  _52
REMARK   19  A    between atoms: _57  and  _59
REMARK   20  A    between atoms: _59  and  _60
REMARK   21  A    between atoms: _59  and  _62
REMARK   22  A    between atoms: _62  and  _63
REMARK   23  A    between atoms: _68  and  _70
REMARK   24  A    between atoms: _70  and  _71
REMARK   25  A    between atoms: _70  and  _73
REMARK   26  A    between atoms: _73  and  _74
REMARK   27  A    between atoms: _77  and  _79
REMARK   28  A    between atoms: _79  and  _80
REMARK   29  A    between atoms: _79  and  _82
REMARK   30  A    between atoms: _82  and  _83
REMARK   31  A    between atoms: _83  and  _84
REMARK   32  A    between atoms: _89  and  _91
REMARK   33  A    between atoms: _91  and  _92
REMARK   34  A    between atoms: _91  and  _94
REMARK   35  A    between atoms: _94  and  _95
REMARK   36  A    between atoms: _101  and  _103
REMARK   37  A    between atoms: _114  and  _117
REMARK   38  A    between atoms: _117  and  _118
REMARK   39  A    between atoms: _126  and  _127
REMARK   40  A    between atoms: _135  and  _137
REMARK   41  A    between atoms: _137  and  _138
REMARK   42  A    between atoms: _137  and  _140
REMARK   43  A    between atoms: _140  and  _141
REMARK   44  A    between atoms: _141  and  _142
REMARK   45  A    between atoms: _145  and  _147
REMARK   46  A    between atoms: _147  and  _148
REMARK   47  A    between atoms: _147  and  _150
REMARK   48  A    between atoms: _150  and  _151
REMARK   49  A    between atoms: _156  and  _158
REMARK   50  A    between atoms: _158  and  _159
REMARK   51  A    between atoms: _158  and  _161
REMARK   52  A    between atoms: _161  and  _162
REMARK   53  A    between atoms: _162  and  _163
REMARK   54  A    between atoms: _166  and  _168
REMARK   55  A    between atoms: _168  and  _169
REMARK   56  A    between atoms: _168  and  _171
REMARK   57  A    between atoms: _171  and  _172
REMARK   58  A    between atoms: _175  and  _177
REMARK   59  A    between atoms: _177  and  _178
REMARK   60  A    between atoms: _177  and  _180
REMARK   61  A    between atoms: _180  and  _181
REMARK   62  A    between atoms: _182  and  ZN_428
REMARK   63  A    between atoms: _186  and  _188
REMARK   64  A    between atoms: _188  and  _189
REMARK   65  A    between atoms: _188  and  _191
REMARK   66  A    between atoms: _191  and  _192
REMARK   67  A    between atoms: _195  and  _197
REMARK   68  A    between atoms: _197  and  _198
REMARK   69  A    between atoms: _197  and  _200
REMARK   70  A    between atoms: _203  and  _205
REMARK   71  A    between atoms: _205  and  _206
REMARK   72  A    between atoms: _205  and  _208
REMARK   73  A    between atoms: _208  and  _209
REMARK   74  A    between atoms: _214  and  _216
REMARK   75  A    between atoms: _216  and  _217
REMARK   76  A    between atoms: _216  and  _219
REMARK   77  A    between atoms: _219  and  _220
REMARK   78  A    between atoms: _226  and  _228
REMARK   79  A    between atoms: _228  and  _229
REMARK   80  A    between atoms: _231  and  _233
REMARK   81  A    between atoms: _233  and  _234
REMARK   82  A    between atoms: _233  and  _236
REMARK   83  A    between atoms: _236  and  _237
REMARK   84  A    between atoms: _237  and  _238
REMARK   85  A    between atoms: _238  and  _239
REMARK   86  A    between atoms: _239  and  _240
REMARK   87  A    between atoms: _244  and  _246
REMARK   88  A    between atoms: _246  and  _247
REMARK   89  A    between atoms: _250  and  _252
REMARK   90  A    between atoms: _252  and  _253
REMARK   91  A    between atoms: _252  and  _255
REMARK   92  A    between atoms: _258  and  _260
REMARK   93  A    between atoms: _260  and  _261
REMARK   94  A    between atoms: _260  and  _263
REMARK   95  A    between atoms: _263  and  _264
REMARK   96  A    between atoms: _264  and  _265
REMARK   97  A    between atoms: _270  and  _272
REMARK   98  A    between atoms: _272  and  _273
REMARK   99  A    between atoms: _272  and  _275
REMARK  100  A    between atoms: _275  and  _276
REMARK  101  A    between atoms: _279  and  _281
REMARK  102  A    between atoms: _281  and  _282
REMARK  103  A    between atoms: _285  and  _287
REMARK  104  A    between atoms: _287  and  _288
REMARK  105  A    between atoms: _287  and  _290
REMARK  106  A    between atoms: _293  and  _295
REMARK  107  A    between atoms: _295  and  _296
REMARK  108  A    between atoms: _295  and  _298
REMARK  109  A    between atoms: _298  and  _299
REMARK  110  A    between atoms: _302  and  _304
REMARK  111  A    between atoms: _304  and  _305
REMARK  112  A    between atoms: _304  and  _307
REMARK  113  A    between atoms: _307  and  _308
REMARK  114  A    between atoms: _310  and  _312
REMARK  115  A    between atoms: _312  and  _313
REMARK  116  A    between atoms: _312  and  _315
REMARK  117  A    between atoms: _315  and  _316
REMARK  118  A    between atoms: _319  and  _321
REMARK  119  A    between atoms: _321  and  _322
REMARK  120  A    between atoms: _321  and  _324
REMARK  121  A    between atoms: _324  and  _325
REMARK  122  A    between atoms: _328  and  _330
REMARK  123  A    between atoms: _330  and  _331
REMARK  124  A    between atoms: _330  and  _333
REMARK  125  A    between atoms: _333  and  _334
REMARK  126  A    between atoms: _338  and  _339
REMARK  127  A    between atoms: _345  and  _346
REMARK  128  A    between atoms: _351  and  _353
REMARK  129  A    between atoms: _353  and  _354
REMARK  130  A    between atoms: _353  and  _356
REMARK  131  A    between atoms: _356  and  _357
REMARK  132  A    between atoms: _360  and  _362
REMARK  133  A    between atoms: _362  and  _363
REMARK  134  A    between atoms: _362  and  _365
REMARK  135  A    between atoms: _365  and  _366
REMARK  136  A    between atoms: _369  and  _371
REMARK  137  A    between atoms: _371  and  _372
REMARK  138  A    between atoms: _371  and  _374
REMARK  139  A    between atoms: _376  and  _378
REMARK  140  A    between atoms: _378  and  _379
REMARK  141  A    between atoms: _378  and  _381
REMARK  142  A    between atoms: _384  and  _386
REMARK  143  A    between atoms: _386  and  _387
REMARK  144  A    between atoms: _386  and  _389
REMARK  145  A    between atoms: _389  and  _390
REMARK  146  A    between atoms: _400  and  _402
REMARK  147  A    between atoms: _402  and  _403
REMARK  148  A    between atoms: _402  and  _405
REMARK  149  A    between atoms: _405  and  _406
REMARK  150  A    between atoms: _411  and  _413
REMARK  151  A    between atoms: _413  and  _414
REMARK  152  A    between atoms: _413  and  _416
REMARK  153  A    between atoms: _416  and  _417
REMARK  154  A    between atoms: _417  and  _418
REMARK  155  A    between atoms: _418  and  _419
REMARK                            x       y       z     vdW  Elec       q    Type
REMARK                         _______ _______ _______ _____ _____    ______ ____
ROOT
ATOM      1  O   HOH     1      -5.096   1.252  10.962  0.00  0.00    +0.000 OA
ENDROOT
TORSDOF 0
REMARK  Name = ../refined-set-2016/1bn4/1bn4_pocket.pdb
REMARK  155 active torsions:
REMARK  status: ('A' for Active; 'I' for Inactive)
REMARK    1  A    between atoms: _1  and  _3
REMARK    2  A    between atoms: _3  and  _4
REMARK    3  A    between atoms: _3  and  _6
REMARK    4  A    between atoms: _6  and  _7
REMARK    5  A    between atoms: _17  and  _19
REMARK    6  A    between atoms: _19  and  _20
REMARK    7  A    between atoms: _19  and  _22
REMARK    8  A    between atoms: _22  and  _23
REMARK    9  A    between atoms: _28  and  _29
REMARK   10  A    between atoms: _31  and  _33
REMARK   11  A    between atoms: _33  and  _34
REMARK   12  A    between atoms: _33  and  _36
REMARK   13  A    between atoms: _36  and  _37
REMARK   14  A    between atoms: _40  and  _41
REMARK   15  A    between atoms: _46  and  _48
REMARK   16  A    between atoms: _48  and  _49
REMARK   17  A    between atoms: _48  and  _51
REMARK   18  A    between atoms: _51  and  _52
REMARK   19  A    between atoms: _57  and  _59
REMARK   20  A    between atoms: _59  and  _60
REMARK   21  A    between atoms: _59  and  _62
REMARK   22  A    between atoms: _62  and  _63
REMARK   23  A    between atoms: _68  and  _70
REMARK   24  A    between atoms: _70  and  _71
REMARK   25  A    between atoms: _70  and  _73
REMARK   26  A    between atoms: _73  and  _74
REMARK   27  A    between atoms: _77  and  _79
REMARK   28  A    between atoms: _79  and  _80
REMARK   29  A    between atoms: _79  and  _82
REMARK   30  A    between atoms: _82  and  _83
REMARK   31  A    between atoms: _83  and  _84
REMARK   32  A    between atoms: _89  and  _91
REMARK   33  A    between atoms: _91  and  _92
REMARK   34  A    between atoms: _91  and  _94
REMARK   35  A    between atoms: _94  and  _95
REMARK   36  A    between atoms: _101  and  _103
REMARK   37  A    between atoms: _114  and  _117
REMARK   38  A    between atoms: _117  and  _118
REMARK   39  A    between atoms: _126  and  _127
REMARK   40  A    between atoms: _135  and  _137
REMARK   41  A    between atoms: _137  and  _138
REMARK   42  A    between atoms: _137  and  _140
REMARK   43  A    between atoms: _140  and  _141
REMARK   44  A    between atoms: _141  and  _142
REMARK   45  A    between atoms: _145  and  _147
REMARK   46  A    between atoms: _147  and  _148
REMARK   47  A    between atoms: _147  and  _150
REMARK   48  A    between atoms: _150  and  _151
REMARK   49  A    between atoms: _156  and  _158
REMARK   50  A    between atoms: _158  and  _159
REMARK   51  A    between atoms: _158  and  _161
REMARK   52  A    between atoms: _161  and  _162
REMARK   53  A    between atoms: _162  and  _163
REMARK   54  A    between atoms: _166  and  _168
REMARK   55  A    between atoms: _168  and  _169
REMARK   56  A    between atoms: _168  and  _171
REMARK   57  A    between atoms: _171  and  _172
REMARK   58  A    between atoms: _175  and  _177
REMARK   59  A    between atoms: _177  and  _178
REMARK   60  A    between atoms: _177  and  _180
REMARK   61  A    between atoms: _180  and  _181
REMARK   62  A    between atoms: _182  and  ZN_428
REMARK   63  A    between atoms: _186  and  _188
REMARK   64  A    between atoms: _188  and  _189
REMARK   65  A    between atoms: _188  and  _191
REMARK   66  A    between atoms: _191  and  _192
REMARK   67  A    between atoms: _195  and  _197
REMARK   68  A    between atoms: _197  and  _198
REMARK   69  A    between atoms: _197  and  _200
REMARK   70  A    between atoms: _203  and  _205
REMARK   71  A    between atoms: _205  and  _206
REMARK   72  A    between atoms: _205  and  _208
REMARK   73  A    between atoms: _208  and  _209
REMARK   74  A    between atoms: _214  and  _216
REMARK   75  A    between atoms: _216  and  _217
REMARK   76  A    between atoms: _216  and  _219
REMARK   77  A    between atoms: _219  and  _220
REMARK   78  A    between atoms: _226  and  _228
REMARK   79  A    between atoms: _228  and  _229
REMARK   80  A    between atoms: _231  and  _233
REMARK   81  A    between atoms: _233  and  _234
REMARK   82  A    between atoms: _233  and  _236
REMARK   83  A    between atoms: _236  and  _237
REMARK   84  A    between atoms: _237  and  _238
REMARK   85  A    between atoms: _238  and  _239
REMARK   86  A    between atoms: _239  and  _240
REMARK   87  A    between atoms: _244  and  _246
REMARK   88  A    between atoms: _246  and  _247
REMARK   89  A    between atoms: _250  and  _252
REMARK   90  A    between atoms: _252  and  _253
REMARK   91  A    between atoms: _252  and  _255
REMARK   92  A    between atoms: _258  and  _260
REMARK   93  A    between atoms: _260  and  _261
REMARK   94  A    between atoms: _260  and  _263
REMARK   95  A    between atoms: _263  and  _264
REMARK   96  A    between atoms: _264  and  _265
REMARK   97  A    between atoms: _270  and  _272
REMARK   98  A    between atoms: _272  and  _273
REMARK   99  A    between atoms: _272  and  _275
REMARK  100  A    between atoms: _275  and  _276
REMARK  101  A    between atoms: _279  and  _281
REMARK  102  A    between atoms: _281  and  _282
REMARK  103  A    between atoms: _285  and  _287
REMARK  104  A    between atoms: _287  and  _288
REMARK  105  A    between atoms: _287  and  _290
REMARK  106  A    between atoms: _293  and  _295
REMARK  107  A    between atoms: _295  and  _296
REMARK  108  A    between atoms: _295  and  _298
REMARK  109  A    between atoms: _298  and  _299
REMARK  110  A    between atoms: _302  and  _304
REMARK  111  A    between atoms: _304  and  _305
REMARK  112  A    between atoms: _304  and  _307
REMARK  113  A    between atoms: _307  and  _308
REMARK  114  A    between atoms: _310  and  _312
REMARK  115  A    between atoms: _312  and  _313
REMARK  116  A    between atoms: _312  and  _315
REMARK  117  A    between atoms: _315  and  _316
REMARK  118  A    between atoms: _319  and  _321
REMARK  119  A    between atoms: _321  and  _322
REMARK  120  A    between atoms: _321  and  _324
REMARK  121  A    between atoms: _324  and  _325
REMARK  122  A    between atoms: _328  and  _330
REMARK  123  A    between atoms: _330  and  _331
REMARK  124  A    between atoms: _330  and  _333
REMARK  125  A    between atoms: _333  and  _334
REMARK  126  A    between atoms: _338  and  _339
REMARK  127  A    between atoms: _345  and  _346
REMARK  128  A    between atoms: _351  and  _353
REMARK  129  A    between atoms: _353  and  _354
REMARK  130  A    between atoms: _353  and  _356
REMARK  131  A    between atoms: _356  and  _357
REMARK  132  A    between atoms: _360  and  _362
REMARK  133  A    between atoms: _362  and  _363
REMARK  134  A    between atoms: _362  and  _365
REMARK  135  A    between atoms: _365  and  _366
REMARK  136  A    between atoms: _369  and  _371
REMARK  137  A    between atoms: _371  and  _372
REMARK  138  A    between atoms: _371  and  _374
REMARK  139  A    between atoms: _376  and  _378
REMARK  140  A    between atoms: _378  and  _379
REMARK  141  A    between atoms: _378  and  _381
REMARK  142  A    between atoms: _384  and  _386
REMARK  143  A    between atoms: _386  and  _387
REMARK  144  A    between atoms: _386  and  _389
REMARK  145  A    between atoms: _389  and  _390
REMARK  146  A    between atoms: _400  and  _402
REMARK  147  A    between atoms: _402  and  _403
REMARK  148  A    between atoms: _402  and  _405
REMARK  149  A    between atoms: _405  and  _406
REMARK  150  A    between atoms: _411  and  _413
REMARK  151  A    between atoms: _413  and  _414
REMARK  152  A    between atoms: _413  and  _416
REMARK  153  A    between atoms: _416  and  _417
REMARK  154  A    between atoms: _417  and  _418
REMARK  155  A    between atoms: _418  and  _419
REMARK                            x       y       z     vdW  Elec       q    Type
REMARK                         _______ _______ _______ _____ _____    ______ ____
ROOT
ATOM      1  O   HOH     1      -1.382  -4.117  16.052  0.00  0.00    +0.000 OA
ENDROOT
TORSDOF 0
REMARK  Name = ../refined-set-2016/1bn4/1bn4_pocket.pdb
REMARK  155 active torsions:
REMARK  status: ('A' for Active; 'I' for Inactive)
REMARK    1  A    between atoms: _1  and  _3
REMARK    2  A    between atoms: _3  and  _4
REMARK    3  A    between atoms: _3  and  _6
REMARK    4  A    between atoms: _6  and  _7
REMARK    5  A    between atoms: _17  and  _19
REMARK    6  A    between atoms: _19  and  _20
REMARK    7  A    between atoms: _19  and  _22
REMARK    8  A    between atoms: _22  and  _23
REMARK    9  A    between atoms: _28  and  _29
REMARK   10  A    between atoms: _31  and  _33
REMARK   11  A    between atoms: _33  and  _34
REMARK   12  A    between atoms: _33  and  _36
REMARK   13  A    between atoms: _36  and  _37
REMARK   14  A    between atoms: _40  and  _41
REMARK   15  A    between atoms: _46  and  _48
REMARK   16  A    between atoms: _48  and  _49
REMARK   17  A    between atoms: _48  and  _51
REMARK   18  A    between atoms: _51  and  _52
REMARK   19  A    between atoms: _57  and  _59
REMARK   20  A    between atoms: _59  and  _60
REMARK   21  A    between atoms: _59  and  _62
REMARK   22  A    between atoms: _62  and  _63
REMARK   23  A    between atoms: _68  and  _70
REMARK   24  A    between atoms: _70  and  _71
REMARK   25  A    between atoms: _70  and  _73
REMARK   26  A    between atoms: _73  and  _74
REMARK   27  A    between atoms: _77  and  _79
REMARK   28  A    between atoms: _79  and  _80
REMARK   29  A    between atoms: _79  and  _82
REMARK   30  A    between atoms: _82  and  _83
REMARK   31  A    between atoms: _83  and  _84
REMARK   32  A    between atoms: _89  and  _91
REMARK   33  A    between atoms: _91  and  _92
REMARK   34  A    between atoms: _91  and  _94
REMARK   35  A    between atoms: _94  and  _95
REMARK   36  A    between atoms: _101  and  _103
REMARK   37  A    between atoms: _114  and  _117
REMARK   38  A    between atoms: _117  and  _118
REMARK   39  A    between atoms: _126  and  _127
REMARK   40  A    between atoms: _135  and  _137
REMARK   41  A    between atoms: _137  and  _138
REMARK   42  A    between atoms: _137  and  _140
REMARK   43  A    between atoms: _140  and  _141
REMARK   44  A    between atoms: _141  and  _142
REMARK   45  A    between atoms: _145  and  _147
REMARK   46  A    between atoms: _147  and  _148
REMARK   47  A    between atoms: _147  and  _150
REMARK   48  A    between atoms: _150  and  _151
REMARK   49  A    between atoms: _156  and  _158
REMARK   50  A    between atoms: _158  and  _159
REMARK   51  A    between atoms: _158  and  _161
REMARK   52  A    between atoms: _161  and  _162
REMARK   53  A    between atoms: _162  and  _163
REMARK   54  A    between atoms: _166  and  _168
REMARK   55  A    between atoms: _168  and  _169
REMARK   56  A    between atoms: _168  and  _171
REMARK   57  A    between atoms: _171  and  _172
REMARK   58  A    between atoms: _175  and  _177
REMARK   59  A    between atoms: _177  and  _178
REMARK   60  A    between atoms: _177  and  _180
REMARK   61  A    between atoms: _180  and  _181
REMARK   62  A    between atoms: _182  and  ZN_428
REMARK   63  A    between atoms: _186  and  _188
REMARK   64  A    between atoms: _188  and  _189
REMARK   65  A    between atoms: _188  and  _191
REMARK   66  A    between atoms: _191  and  _192
REMARK   67  A    between atoms: _195  and  _197
REMARK   68  A    between atoms: _197  and  _198
REMARK   69  A    between atoms: _197  and  _200
REMARK   70  A    between atoms: _203  and  _205
REMARK   71  A    between atoms: _205  and  _206
REMARK   72  A    between atoms: _205  and  _208
REMARK   73  A    between atoms: _208  and  _209
REMARK   74  A    between atoms: _214  and  _216
REMARK   75  A    between atoms: _216  and  _217
REMARK   76  A    between atoms: _216  and  _219
REMARK   77  A    between atoms: _219  and  _220
REMARK   78  A    between atoms: _226  and  _228
REMARK   79  A    between atoms: _228  and  _229
REMARK   80  A    between atoms: _231  and  _233
REMARK   81  A    between atoms: _233  and  _234
REMARK   82  A    between atoms: _233  and  _236
REMARK   83  A    between atoms: _236  and  _237
REMARK   84  A    between atoms: _237  and  _238
REMARK   85  A    between atoms: _238  and  _239
REMARK   86  A    between atoms: _239  and  _240
REMARK   87  A    between atoms: _244  and  _246
REMARK   88  A    between atoms: _246  and  _247
REMARK   89  A    between atoms: _250  and  _252
REMARK   90  A    between atoms: _252  and  _253
REMARK   91  A    between atoms: _252  and  _255
REMARK   92  A    between atoms: _258  and  _260
REMARK   93  A    between atoms: _260  and  _261
REMARK   94  A    between atoms: _260  and  _263
REMARK   95  A    between atoms: _263  and  _264
REMARK   96  A    between atoms: _264  and  _265
REMARK   97  A    between atoms: _270  and  _272
REMARK   98  A    between atoms: _272  and  _273
REMARK   99  A    between atoms: _272  and  _275
REMARK  100  A    between atoms: _275  and  _276
REMARK  101  A    between atoms: _279  and  _281
REMARK  102  A    between atoms: _281  and  _282
REMARK  103  A    between atoms: _285  and  _287
REMARK  104  A    between atoms: _287  and  _288
REMARK  105  A    between atoms: _287  and  _290
REMARK  106  A    between atoms: _293  and  _295
REMARK  107  A    between atoms: _295  and  _296
REMARK  108  A    between atoms: _295  and  _298
REMARK  109  A    between atoms: _298  and  _299
REMARK  110  A    between atoms: _302  and  _304
REMARK  111  A    between atoms: _304  and  _305
REMARK  112  A    between atoms: _304  and  _307
REMARK  113  A    between atoms: _307  and  _308
REMARK  114  A    between atoms: _310  and  _312
REMARK  115  A    between atoms: _312  and  _313
REMARK  116  A    between atoms: _312  and  _315
REMARK  117  A    between atoms: _315  and  _316
REMARK  118  A    between atoms: _319  and  _321
REMARK  119  A    between atoms: _321  and  _322
REMARK  120  A    between atoms: _321  and  _324
REMARK  121  A    between atoms: _324  and  _325
REMARK  122  A    between atoms: _328  and  _330
REMARK  123  A    between atoms: _330  and  _331
REMARK  124  A    between atoms: _330  and  _333
REMARK  125  A    between atoms: _333  and  _334
REMARK  126  A    between atoms: _338  and  _339
REMARK  127  A    between atoms: _345  and  _346
REMARK  128  A    between atoms: _351  and  _353
REMARK  129  A    between atoms: _353  and  _354
REMARK  130  A    between atoms: _353  and  _356
REMARK  131  A    between atoms: _356  and  _357
REMARK  132  A    between atoms: _360  and  _362
REMARK  133  A    between atoms: _362  and  _363
REMARK  134  A    between atoms: _362  and  _365
REMARK  135  A    between atoms: _365  and  _366
REMARK  136  A    between atoms: _369  and  _371
REMARK  137  A    between atoms: _371  and  _372
REMARK  138  A    between atoms: _371  and  _374
REMARK  139  A    between atoms: _376  and  _378
REMARK  140  A    between atoms: _378  and  _379
REMARK  141  A    between atoms: _378  and  _381
REMARK  142  A    between atoms: _384  and  _386
REMARK  143  A    between atoms: _386  and  _387
REMARK  144  A    between atoms: _386  and  _389
REMARK  145  A    between atoms: _389  and  _390
REMARK  146  A    between atoms: _400  and  _402
REMARK  147  A    between atoms: _402  and  _403
REMARK  148  A    between atoms: _402  and  _405
REMARK  149  A    between atoms: _405  and  _406
REMARK  150  A    between atoms: _411  and  _413
REMARK  151  A    between atoms: _413  and  _414
REMARK  152  A    between atoms: _413  and  _416
REMARK  153  A    between atoms: _416  and  _417
REMARK  154  A    between atoms: _417  and  _418
REMARK  155  A    between atoms: _418  and  _419
REMARK                            x       y       z     vdW  Elec       q    Type
REMARK                         _______ _______ _______ _____ _____    ______ ____
ROOT
ATOM      1  O   HOH     1      -3.424  -0.729  11.505  0.00  0.00    +0.000 OA
ENDROOT
TORSDOF 0
REMARK  Name = ../refined-set-2016/1bn4/1bn4_pocket.pdb
REMARK  155 active torsions:
REMARK  status: ('A' for Active; 'I' for Inactive)
REMARK    1  A    between atoms: _1  and  _3
REMARK    2  A    between atoms: _3  and  _4
REMARK    3  A    between atoms: _3  and  _6
REMARK    4  A    between atoms: _6  and  _7
REMARK    5  A    between atoms: _17  and  _19
REMARK    6  A    between atoms: _19  and  _20
REMARK    7  A    between atoms: _19  and  _22
REMARK    8  A    between atoms: _22  and  _23
REMARK    9  A    between atoms: _28  and  _29
REMARK   10  A    between atoms: _31  and  _33
REMARK   11  A    between atoms: _33  and  _34
REMARK   12  A    between atoms: _33  and  _36
REMARK   13  A    between atoms: _36  and  _37
REMARK   14  A    between atoms: _40  and  _41
REMARK   15  A    between atoms: _46  and  _48
REMARK   16  A    between atoms: _48  and  _49
REMARK   17  A    between atoms: _48  and  _51
REMARK   18  A    between atoms: _51  and  _52
REMARK   19  A    between atoms: _57  and  _59
REMARK   20  A    between atoms: _59  and  _60
REMARK   21  A    between atoms: _59  and  _62
REMARK   22  A    between atoms: _62  and  _63
REMARK   23  A    between atoms: _68  and  _70
REMARK   24  A    between atoms: _70  and  _71
REMARK   25  A    between atoms: _70  and  _73
REMARK   26  A    between atoms: _73  and  _74
REMARK   27  A    between atoms: _77  and  _79
REMARK   28  A    between atoms: _79  and  _80
REMARK   29  A    between atoms: _79  and  _82
REMARK   30  A    between atoms: _82  and  _83
REMARK   31  A    between atoms: _83  and  _84
REMARK   32  A    between atoms: _89  and  _91
REMARK   33  A    between atoms: _91  and  _92
REMARK   34  A    between atoms: _91  and  _94
REMARK   35  A    between atoms: _94  and  _95
REMARK   36  A    between atoms: _101  and  _103
REMARK   37  A    between atoms: _114  and  _117
REMARK   38  A    between atoms: _117  and  _118
REMARK   39  A    between atoms: _126  and  _127
REMARK   40  A    between atoms: _135  and  _137
REMARK   41  A    between atoms: _137  and  _138
REMARK   42  A    between atoms: _137  and  _140
REMARK   43  A    between atoms: _140  and  _141
REMARK   44  A    between atoms: _141  and  _142
REMARK   45  A    between atoms: _145  and  _147
REMARK   46  A    between atoms: _147  and  _148
REMARK   47  A    between atoms: _147  and  _150
REMARK   48  A    between atoms: _150  and  _151
REMARK   49  A    between atoms: _156  and  _158
REMARK   50  A    between atoms: _158  and  _159
REMARK   51  A    between atoms: _158  and  _161
REMARK   52  A    between atoms: _161  and  _162
REMARK   53  A    between atoms: _162  and  _163
REMARK   54  A    between atoms: _166  and  _168
REMARK   55  A    between atoms: _168  and  _169
REMARK   56  A    between atoms: _168  and  _171
REMARK   57  A    between atoms: _171  and  _172
REMARK   58  A    between atoms: _175  and  _177
REMARK   59  A    between atoms: _177  and  _178
REMARK   60  A    between atoms: _177  and  _180
REMARK   61  A    between atoms: _180  and  _181
REMARK   62  A    between atoms: _182  and  ZN_428
REMARK   63  A    between atoms: _186  and  _188
REMARK   64  A    between atoms: _188  and  _189
REMARK   65  A    between atoms: _188  and  _191
REMARK   66  A    between atoms: _191  and  _192
REMARK   67  A    between atoms: _195  and  _197
REMARK   68  A    between atoms: _197  and  _198
REMARK   69  A    between atoms: _197  and  _200
REMARK   70  A    between atoms: _203  and  _205
REMARK   71  A    between atoms: _205  and  _206
REMARK   72  A    between atoms: _205  and  _208
REMARK   73  A    between atoms: _208  and  _209
REMARK   74  A    between atoms: _214  and  _216
REMARK   75  A    between atoms: _216  and  _217
REMARK   76  A    between atoms: _216  and  _219
REMARK   77  A    between atoms: _219  and  _220
REMARK   78  A    between atoms: _226  and  _228
REMARK   79  A    between atoms: _228  and  _229
REMARK   80  A    between atoms: _231  and  _233
REMARK   81  A    between atoms: _233  and  _234
REMARK   82  A    between atoms: _233  and  _236
REMARK   83  A    between atoms: _236  and  _237
REMARK   84  A    between atoms: _237  and  _238
REMARK   85  A    between atoms: _238  and  _239
REMARK   86  A    between atoms: _239  and  _240
REMARK   87  A    between atoms: _244  and  _246
REMARK   88  A    between atoms: _246  and  _247
REMARK   89  A    between atoms: _250  and  _252
REMARK   90  A    between atoms: _252  and  _253
REMARK   91  A    between atoms: _252  and  _255
REMARK   92  A    between atoms: _258  and  _260
REMARK   93  A    between atoms: _260  and  _261
REMARK   94  A    between atoms: _260  and  _263
REMARK   95  A    between atoms: _263  and  _264
REMARK   96  A    between atoms: _264  and  _265
REMARK   97  A    between atoms: _270  and  _272
REMARK   98  A    between atoms: _272  and  _273
REMARK   99  A    between atoms: _272  and  _275
REMARK  100  A    between atoms: _275  and  _276
REMARK  101  A    between atoms: _279  and  _281
REMARK  102  A    between atoms: _281  and  _282
REMARK  103  A    between atoms: _285  and  _287
REMARK  104  A    between atoms: _287  and  _288
REMARK  105  A    between atoms: _287  and  _290
REMARK  106  A    between atoms: _293  and  _295
REMARK  107  A    between atoms: _295  and  _296
REMARK  108  A    between atoms: _295  and  _298
REMARK  109  A    between atoms: _298  and  _299
REMARK  110  A    between atoms: _302  and  _304
REMARK  111  A    between atoms: _304  and  _305
REMARK  112  A    between atoms: _304  and  _307
REMARK  113  A    between atoms: _307  and  _308
REMARK  114  A    between atoms: _310  and  _312
REMARK  115  A    between atoms: _312  and  _313
REMARK  116  A    between atoms: _312  and  _315
REMARK  117  A    between atoms: _315  and  _316
REMARK  118  A    between atoms: _319  and  _321
REMARK  119  A    between atoms: _321  and  _322
REMARK  120  A    between atoms: _321  and  _324
REMARK  121  A    between atoms: _324  and  _325
REMARK  122  A    between atoms: _328  and  _330
REMARK  123  A    between atoms: _330  and  _331
REMARK  124  A    between atoms: _330  and  _333
REMARK  125  A    between atoms: _333  and  _334
REMARK  126  A    between atoms: _338  and  _339
REMARK  127  A    between atoms: _345  and  _346
REMARK  128  A    between atoms: _351  and  _353
REMARK  129  A    between atoms: _353  and  _354
REMARK  130  A    between atoms: _353  and  _356
REMARK  131  A    between atoms: _356  and  _357
REMARK  132  A    between atoms: _360  and  _362
REMARK  133  A    between atoms: _362  and  _363
REMARK  134  A    between atoms: _362  and  _365
REMARK  135  A    between atoms: _365  and  _366
REMARK  136  A    between atoms: _369  and  _371
REMARK  137  A    between atoms: _371  and  _372
REMARK  138  A    between atoms: _371  and  _374
REMARK  139  A    between atoms: _376  and  _378
REMARK  140  A    between atoms: _378  and  _379
REMARK  141  A    between atoms: _378  and  _381
REMARK  142  A    between atoms: _384  and  _386
REMARK  143  A    between atoms: _386  and  _387
REMARK  144  A    between atoms: _386  and  _389
REMARK  145  A    between atoms: _389  and  _390
REMARK  146  A    between atoms: _400  and  _402
REMARK  147  A    between atoms: _402  and  _403
REMARK  148  A    between atoms: _402  and  _405
REMARK  149  A    between atoms: _405  and  _406
REMARK  150  A    between atoms: _411  and  _413
REMARK  151  A    between atoms: _413  and  _414
REMARK  152  A    between atoms: _413  and  _416
REMARK  153  A    between atoms: _416  and  _417
REMARK  154  A    between atoms: _417  and  _418
REMARK  155  A    between atoms: _418  and  _419
REMARK                            x       y       z     vdW  Elec       q    Type
REMARK                         _______ _______ _______ _____ _____    ______ ____
ROOT
ATOM      1  O   HOH     1      -3.039  -3.483  11.668  0.00  0.00    +0.000 OA
ENDROOT
TORSDOF 0
REMARK  Name = ../refined-set-2016/1bn4/1bn4_pocket.pdb
REMARK  155 active torsions:
REMARK  status: ('A' for Active; 'I' for Inactive)
REMARK    1  A    between atoms: _1  and  _3
REMARK    2  A    between atoms: _3  and  _4
REMARK    3  A    between atoms: _3  and  _6
REMARK    4  A    between atoms: _6  and  _7
REMARK    5  A    between atoms: _17  and  _19
REMARK    6  A    between atoms: _19  and  _20
REMARK    7  A    between atoms: _19  and  _22
REMARK    8  A    between atoms: _22  and  _23
REMARK    9  A    between atoms: _28  and  _29
REMARK   10  A    between atoms: _31  and  _33
REMARK   11  A    between atoms: _33  and  _34
REMARK   12  A    between atoms: _33  and  _36
REMARK   13  A    between atoms: _36  and  _37
REMARK   14  A    between atoms: _40  and  _41
REMARK   15  A    between atoms: _46  and  _48
REMARK   16  A    between atoms: _48  and  _49
REMARK   17  A    between atoms: _48  and  _51
REMARK   18  A    between atoms: _51  and  _52
REMARK   19  A    between atoms: _57  and  _59
REMARK   20  A    between atoms: _59  and  _60
REMARK   21  A    between atoms: _59  and  _62
REMARK   22  A    between atoms: _62  and  _63
REMARK   23  A    between atoms: _68  and  _70
REMARK   24  A    between atoms: _70  and  _71
REMARK   25  A    between atoms: _70  and  _73
REMARK   26  A    between atoms: _73  and  _74
REMARK   27  A    between atoms: _77  and  _79
REMARK   28  A    between atoms: _79  and  _80
REMARK   29  A    between atoms: _79  and  _82
REMARK   30  A    between atoms: _82  and  _83
REMARK   31  A    between atoms: _83  and  _84
REMARK   32  A    between atoms: _89  and  _91
REMARK   33  A    between atoms: _91  and  _92
REMARK   34  A    between atoms: _91  and  _94
REMARK   35  A    between atoms: _94  and  _95
REMARK   36  A    between atoms: _101  and  _103
REMARK   37  A    between atoms: _114  and  _117
REMARK   38  A    between atoms: _117  and  _118
REMARK   39  A    between atoms: _126  and  _127
REMARK   40  A    between atoms: _135  and  _137
REMARK   41  A    between atoms: _137  and  _138
REMARK   42  A    between atoms: _137  and  _140
REMARK   43  A    between atoms: _140  and  _141
REMARK   44  A    between atoms: _141  and  _142
REMARK   45  A    between atoms: _145  and  _147
REMARK   46  A    between atoms: _147  and  _148
REMARK   47  A    between atoms: _147  and  _150
REMARK   48  A    between atoms: _150  and  _151
REMARK   49  A    between atoms: _156  and  _158
REMARK   50  A    between atoms: _158  and  _159
REMARK   51  A    between atoms: _158  and  _161
REMARK   52  A    between atoms: _161  and  _162
REMARK   53  A    between atoms: _162  and  _163
REMARK   54  A    between atoms: _166  and  _168
REMARK   55  A    between atoms: _168  and  _169
REMARK   56  A    between atoms: _168  and  _171
REMARK   57  A    between atoms: _171  and  _172
REMARK   58  A    between atoms: _175  and  _177
REMARK   59  A    between atoms: _177  and  _178
REMARK   60  A    between atoms: _177  and  _180
REMARK   61  A    between atoms: _180  and  _181
REMARK   62  A    between atoms: _182  and  ZN_428
REMARK   63  A    between atoms: _186  and  _188
REMARK   64  A    between atoms: _188  and  _189
REMARK   65  A    between atoms: _188  and  _191
REMARK   66  A    between atoms: _191  and  _192
REMARK   67  A    between atoms: _195  and  _197
REMARK   68  A    between atoms: _197  and  _198
REMARK   69  A    between atoms: _197  and  _200
REMARK   70  A    between atoms: _203  and  _205
REMARK   71  A    between atoms: _205  and  _206
REMARK   72  A    between atoms: _205  and  _208
REMARK   73  A    between atoms: _208  and  _209
REMARK   74  A    between atoms: _214  and  _216
REMARK   75  A    between atoms: _216  and  _217
REMARK   76  A    between atoms: _216  and  _219
REMARK   77  A    between atoms: _219  and  _220
REMARK   78  A    between atoms: _226  and  _228
REMARK   79  A    between atoms: _228  and  _229
REMARK   80  A    between atoms: _231  and  _233
REMARK   81  A    between atoms: _233  and  _234
REMARK   82  A    between atoms: _233  and  _236
REMARK   83  A    between atoms: _236  and  _237
REMARK   84  A    between atoms: _237  and  _238
REMARK   85  A    between atoms: _238  and  _239
REMARK   86  A    between atoms: _239  and  _240
REMARK   87  A    between atoms: _244  and  _246
REMARK   88  A    between atoms: _246  and  _247
REMARK   89  A    between atoms: _250  and  _252
REMARK   90  A    between atoms: _252  and  _253
REMARK   91  A    between atoms: _252  and  _255
REMARK   92  A    between atoms: _258  and  _260
REMARK   93  A    between atoms: _260  and  _261
REMARK   94  A    between atoms: _260  and  _263
REMARK   95  A    between atoms: _263  and  _264
REMARK   96  A    between atoms: _264  and  _265
REMARK   97  A    between atoms: _270  and  _272
REMARK   98  A    between atoms: _272  and  _273
REMARK   99  A    between atoms: _272  and  _275
REMARK  100  A    between atoms: _275  and  _276
REMARK  101  A    between atoms: _279  and  _281
REMARK  102  A    between atoms: _281  and  _282
REMARK  103  A    between atoms: _285  and  _287
REMARK  104  A    between atoms: _287  and  _288
REMARK  105  A    between atoms: _287  and  _290
REMARK  106  A    between atoms: _293  and  _295
REMARK  107  A    between atoms: _295  and  _296
REMARK  108  A    between atoms: _295  and  _298
REMARK  109  A    between atoms: _298  and  _299
REMARK  110  A    between atoms: _302  and  _304
REMARK  111  A    between atoms: _304  and  _305
REMARK  112  A    between atoms: _304  and  _307
REMARK  113  A    between atoms: _307  and  _308
REMARK  114  A    between atoms: _310  and  _312
REMARK  115  A    between atoms: _312  and  _313
REMARK  116  A    between atoms: _312  and  _315
REMARK  117  A    between atoms: _315  and  _316
REMARK  118  A    between atoms: _319  and  _321
REMARK  119  A    between atoms: _321  and  _322
REMARK  120  A    between atoms: _321  and  _324
REMARK  121  A    between atoms: _324  and  _325
REMARK  122  A    between atoms: _328  and  _330
REMARK  123  A    between atoms: _330  and  _331
REMARK  124  A    between atoms: _330  and  _333
REMARK  125  A    between atoms: _333  and  _334
REMARK  126  A    between atoms: _338  and  _339
REMARK  127  A    between atoms: _345  and  _346
REMARK  128  A    between atoms: _351  and  _353
REMARK  129  A    between atoms: _353  and  _354
REMARK  130  A    between atoms: _353  and  _356
REMARK  131  A    between atoms: _356  and  _357
REMARK  132  A    between atoms: _360  and  _362
REMARK  133  A    between atoms: _362  and  _363
REMARK  134  A    between atoms: _362  and  _365
REMARK  135  A    between atoms: _365  and  _366
REMARK  136  A    between atoms: _369  and  _371
REMARK  137  A    between atoms: _371  and  _372
REMARK  138  A    between atoms: _371  and  _374
REMARK  139  A    between atoms: _376  and  _378
REMARK  140  A    between atoms: _378  and  _379
REMARK  141  A    between atoms: _378  and  _381
REMARK  142  A    between atoms: _384  and  _386
REMARK  143  A    between atoms: _386  and  _387
REMARK  144  A    between atoms: _386  and  _389
REMARK  145  A    between atoms: _389  and  _390
REMARK  146  A    between atoms: _400  and  _402
REMARK  147  A    between atoms: _402  and  _403
REMARK  148  A    between atoms: _402  and  _405
REMARK  149  A    between atoms: _405  and  _406
REMARK  150  A    between atoms: _411  and  _413
REMARK  151  A    between atoms: _413  and  _414
REMARK  152  A    between atoms: _413  and  _416
REMARK  153  A    between atoms: _416  and  _417
REMARK  154  A    between atoms: _417  and  _418
REMARK  155  A    between atoms: _418  and  _419
REMARK                            x       y       z     vdW  Elec       q    Type
REMARK                         _______ _______ _______ _____ _____    ______ ____
ROOT
ATOM      1  O   HOH     1       0.813  11.626  22.838  0.00  0.00    +0.000 OA
ENDROOT
TORSDOF 0
