REMARK  Name = ../refined-set-2016/7upj/7upj_pocket.pdb
REMARK  182 active torsions:
REMARK  status: ('A' for Active; 'I' for Inactive)
REMARK    1  A    between atoms: _1  and  _3
REMARK    2  A    between atoms: _3  and  _4
REMARK    3  A    between atoms: _3  and  _6
REMARK    4  A    between atoms: _6  and  _7
REMARK    5  A    between atoms: _7  and  _8
REMARK    6  A    between atoms: _8  and  _9
REMARK    7  A    between atoms: _18  and  _20
REMARK    8  A    between atoms: _20  and  _21
REMARK    9  A    between atoms: _20  and  _23
REMARK   10  A    between atoms: _23  and  _24
REMARK   11  A    between atoms: _27  and  _29
REMARK   12  A    between atoms: _29  and  _30
REMARK   13  A    between atoms: _29  and  _32
REMARK   14  A    between atoms: _32  and  _33
REMARK   15  A    between atoms: _36  and  _38
REMARK   16  A    between atoms: _38  and  _39
REMARK   17  A    between atoms: _38  and  _41
REMARK   18  A    between atoms: _41  and  _42
REMARK   19  A    between atoms: _45  and  _47
REMARK   20  A    between atoms: _47  and  _48
REMARK   21  A    between atoms: _47  and  _50
REMARK   22  A    between atoms: _50  and  _51
REMARK   23  A    between atoms: _54  and  _56
REMARK   24  A    between atoms: _56  and  _57
REMARK   25  A    between atoms: _59  and  _61
REMARK   26  A    between atoms: _61  and  _62
REMARK   27  A    between atoms: _65  and  _67
REMARK   28  A    between atoms: _67  and  _68
REMARK   29  A    between atoms: _67  and  _70
REMARK   30  A    between atoms: _70  and  _71
REMARK   31  A    between atoms: _74  and  _76
REMARK   32  A    between atoms: _76  and  _77
REMARK   33  A    between atoms: _76  and  _79
REMARK   34  A    between atoms: _79  and  _80
REMARK   35  A    between atoms: _83  and  _85
REMARK   36  A    between atoms: _85  and  _86
REMARK   37  A    between atoms: _85  and  _88
REMARK   38  A    between atoms: _88  and  _89
REMARK   39  A    between atoms: _92  and  _94
REMARK   40  A    between atoms: _94  and  _95
REMARK   41  A    between atoms: _94  and  _97
REMARK   42  A    between atoms: _100  and  _102
REMARK   43  A    between atoms: _102  and  _103
REMARK   44  A    between atoms: _102  and  _105
REMARK   45  A    between atoms: _105  and  _106
REMARK   46  A    between atoms: _106  and  _107
REMARK   47  A    between atoms: _107  and  _108
REMARK   48  A    between atoms: _108  and  _109
REMARK   49  A    between atoms: _113  and  _115
REMARK   50  A    between atoms: _115  and  _116
REMARK   51  A    between atoms: _115  and  _118
REMARK   52  A    between atoms: _118  and  _119
REMARK   53  A    between atoms: _119  and  _120
REMARK   54  A    between atoms: _122  and  _124
REMARK   55  A    between atoms: _124  and  _125
REMARK   56  A    between atoms: _124  and  _127
REMARK   57  A    between atoms: _127  and  _128
REMARK   58  A    between atoms: _131  and  _133
REMARK   59  A    between atoms: _133  and  _134
REMARK   60  A    between atoms: _136  and  _138
REMARK   61  A    between atoms: _138  and  _139
REMARK   62  A    between atoms: _141  and  _143
REMARK   63  A    between atoms: _143  and  _144
REMARK   64  A    between atoms: _143  and  _146
REMARK   65  A    between atoms: _146  and  _147
REMARK   66  A    between atoms: _150  and  _152
REMARK   67  A    between atoms: _152  and  _153
REMARK   68  A    between atoms: _155  and  _157
REMARK   69  A    between atoms: _157  and  _158
REMARK   70  A    between atoms: _160  and  _162
REMARK   71  A    between atoms: _162  and  _163
REMARK   72  A    between atoms: _162  and  _165
REMARK   73  A    between atoms: _165  and  _166
REMARK   74  A    between atoms: _172  and  _174
REMARK   75  A    between atoms: _174  and  _175
REMARK   76  A    between atoms: _174  and  _177
REMARK   77  A    between atoms: _177  and  _178
REMARK   78  A    between atoms: _181  and  _183
REMARK   79  A    between atoms: _183  and  _184
REMARK   80  A    between atoms: _183  and  _186
REMARK   81  A    between atoms: _186  and  _187
REMARK   82  A    between atoms: _190  and  _192
REMARK   83  A    between atoms: _192  and  _193
REMARK   84  A    between atoms: _192  and  _195
REMARK   85  A    between atoms: _195  and  _196
REMARK   86  A    between atoms: _200  and  _201
REMARK   87  A    between atoms: _206  and  _208
REMARK   88  A    between atoms: _208  and  _209
REMARK   89  A    between atoms: _208  and  _211
REMARK   90  A    between atoms: _214  and  _216
REMARK   91  A    between atoms: _216  and  _217
REMARK   92  A    between atoms: _216  and  _219
REMARK   93  A    between atoms: _219  and  _220
REMARK   94  A    between atoms: _225  and  _227
REMARK   95  A    between atoms: _227  and  _228
REMARK   96  A    between atoms: _227  and  _230
REMARK   97  A    between atoms: _230  and  _231
REMARK   98  A    between atoms: _234  and  _236
REMARK   99  A    between atoms: _236  and  _237
REMARK  100  A    between atoms: _236  and  _239
REMARK  101  A    between atoms: _239  and  _240
REMARK  102  A    between atoms: _243  and  _245
REMARK  103  A    between atoms: _245  and  _246
REMARK  104  A    between atoms: _248  and  _250
REMARK  105  A    between atoms: _250  and  _251
REMARK  106  A    between atoms: _250  and  _253
REMARK  107  A    between atoms: _253  and  _254
REMARK  108  A    between atoms: _254  and  _255
REMARK  109  A    between atoms: _255  and  _256
REMARK  110  A    between atoms: _265  and  _267
REMARK  111  A    between atoms: _267  and  _268
REMARK  112  A    between atoms: _267  and  _270
REMARK  113  A    between atoms: _270  and  _271
REMARK  114  A    between atoms: _271  and  _272
REMARK  115  A    between atoms: _272  and  _273
REMARK  116  A    between atoms: _282  and  _284
REMARK  117  A    between atoms: _284  and  _285
REMARK  118  A    between atoms: _284  and  _287
REMARK  119  A    between atoms: _287  and  _288
REMARK  120  A    between atoms: _291  and  _293
REMARK  121  A    between atoms: _293  and  _294
REMARK  122  A    between atoms: _293  and  _296
REMARK  123  A    between atoms: _296  and  _297
REMARK  124  A    between atoms: _300  and  _302
REMARK  125  A    between atoms: _302  and  _303
REMARK  126  A    between atoms: _302  and  _305
REMARK  127  A    between atoms: _305  and  _306
REMARK  128  A    between atoms: _309  and  _311
REMARK  129  A    between atoms: _311  and  _312
REMARK  130  A    between atoms: _311  and  _314
REMARK  131  A    between atoms: _314  and  _315
REMARK  132  A    between atoms: _318  and  _320
REMARK  133  A    between atoms: _320  and  _321
REMARK  134  A    between atoms: _323  and  _325
REMARK  135  A    between atoms: _325  and  _326
REMARK  136  A    between atoms: _329  and  _331
REMARK  137  A    between atoms: _331  and  _332
REMARK  138  A    between atoms: _331  and  _334
REMARK  139  A    between atoms: _334  and  _335
REMARK  140  A    between atoms: _338  and  _340
REMARK  141  A    between atoms: _340  and  _341
REMARK  142  A    between atoms: _340  and  _343
REMARK  143  A    between atoms: _343  and  _344
REMARK  144  A    between atoms: _347  and  _349
REMARK  145  A    between atoms: _349  and  _350
REMARK  146  A    between atoms: _349  and  _352
REMARK  147  A    between atoms: _355  and  _357
REMARK  148  A    between atoms: _357  and  _358
REMARK  149  A    between atoms: _357  and  _360
REMARK  150  A    between atoms: _360  and  _361
REMARK  151  A    between atoms: _364  and  _366
REMARK  152  A    between atoms: _366  and  _367
REMARK  153  A    between atoms: _369  and  _371
REMARK  154  A    between atoms: _371  and  _372
REMARK  155  A    between atoms: _374  and  _376
REMARK  156  A    between atoms: _376  and  _377
REMARK  157  A    between atoms: _376  and  _379
REMARK  158  A    between atoms: _379  and  _380
REMARK  159  A    between atoms: _383  and  _385
REMARK  160  A    between atoms: _385  and  _386
REMARK  161  A    between atoms: _388  and  _390
REMARK  162  A    between atoms: _390  and  _391
REMARK  163  A    between atoms: _393  and  _395
REMARK  164  A    between atoms: _395  and  _396
REMARK  165  A    between atoms: _395  and  _398
REMARK  166  A    between atoms: _398  and  _399
REMARK  167  A    between atoms: _403  and  _404
REMARK  168  A    between atoms: _409  and  _411
REMARK  169  A    between atoms: _411  and  _412
REMARK  170  A    between atoms: _411  and  _414
REMARK  171  A    between atoms: _417  and  _419
REMARK  172  A    between atoms: _419  and  _420
REMARK  173  A    between atoms: _419  and  _422
REMARK  174  A    between atoms: _422  and  _423
REMARK  175  A    between atoms: _428  and  _430
REMARK  176  A    between atoms: _430  and  _431
REMARK  177  A    between atoms: _430  and  _433
REMARK  178  A    between atoms: _433  and  _434
REMARK  179  A    between atoms: _437  and  _439
REMARK  180  A    between atoms: _439  and  _440
REMARK  181  A    between atoms: _439  and  _442
REMARK  182  A    between atoms: _442  and  _443
REMARK                            x       y       z     vdW  Elec       q    Type
REMARK                         _______ _______ _______ _____ _____    ______ ____
ROOT
ATOM      1  NE  ARG A   1      24.674  21.616   8.339  0.00  0.00    -0.265 N 
ATOM      2  HE  ARG A   1      25.542  21.120   8.627  0.00  0.00    +0.259 HD
ATOM      3  CZ  ARG A   1      23.578  20.879   8.148  0.00  0.00    +0.342 C 
ATOM      4  NH2 ARG A   1      23.600  19.550   8.322  0.00  0.00    -0.292 N 
ATOM      5 HH21 ARG A   1      24.481  19.078   8.610  0.00  0.00    +0.255 HD
ATOM      6 HH22 ARG A   1      22.736  18.991   8.169  0.00  0.00    +0.255 HD
ATOM      7  NH1 ARG A   1      22.438  21.478   7.799  0.00  0.00    -0.292 N 
ATOM      8 HH11 ARG A   1      22.409  22.511   7.678  0.00  0.00    +0.255 HD
ATOM      9 HH12 ARG A   1      21.578  20.912   7.648  0.00  0.00    +0.255 HD
ENDROOT
BRANCH   1  10
ATOM     10  CD  ARG A   1      24.749  23.063   8.175  0.00  0.00    +0.174 C 
BRANCH  10  11
ATOM     11  CG  ARG A   1      25.911  23.465   7.316  0.00  0.00    +0.045 C 
BRANCH  11  12
ATOM     12  CB  ARG A   1      26.292  24.887   7.616  0.00  0.00    +0.029 C 
BRANCH  12  13
ATOM     13  CA  ARG A   1      26.870  25.666   6.434  0.00  0.00    +0.133 C 
BRANCH  13  14
ATOM     14  N   ARG A   1      28.136  25.078   5.979  0.00  0.00    -0.239 NA
ATOM     15  H   ARG A   1      28.542  24.273   6.497  0.00  0.00    +0.142 HD
ENDBRANCH  13  14
BRANCH  13  16
ATOM     16  C   ARG A   1      27.062  27.132   6.855  0.00  0.00    +0.224 C 
ATOM     17  O   ARG A   1      28.091  27.491   7.433  0.00  0.00    -0.287 OA
ENDBRANCH  13  16
ENDBRANCH  12  13
ENDBRANCH  11  12
ENDBRANCH  10  11
ENDBRANCH   1  10
TORSDOF 6
REMARK  Name = ../refined-set-2016/7upj/7upj_pocket.pdb
REMARK  182 active torsions:
REMARK  status: ('A' for Active; 'I' for Inactive)
REMARK    1  A    between atoms: _1  and  _3
REMARK    2  A    between atoms: _3  and  _4
REMARK    3  A    between atoms: _3  and  _6
REMARK    4  A    between atoms: _6  and  _7
REMARK    5  A    between atoms: _7  and  _8
REMARK    6  A    between atoms: _8  and  _9
REMARK    7  A    between atoms: _18  and  _20
REMARK    8  A    between atoms: _20  and  _21
REMARK    9  A    between atoms: _20  and  _23
REMARK   10  A    between atoms: _23  and  _24
REMARK   11  A    between atoms: _27  and  _29
REMARK   12  A    between atoms: _29  and  _30
REMARK   13  A    between atoms: _29  and  _32
REMARK   14  A    between atoms: _32  and  _33
REMARK   15  A    between atoms: _36  and  _38
REMARK   16  A    between atoms: _38  and  _39
REMARK   17  A    between atoms: _38  and  _41
REMARK   18  A    between atoms: _41  and  _42
REMARK   19  A    between atoms: _45  and  _47
REMARK   20  A    between atoms: _47  and  _48
REMARK   21  A    between atoms: _47  and  _50
REMARK   22  A    between atoms: _50  and  _51
REMARK   23  A    between atoms: _54  and  _56
REMARK   24  A    between atoms: _56  and  _57
REMARK   25  A    between atoms: _59  and  _61
REMARK   26  A    between atoms: _61  and  _62
REMARK   27  A    between atoms: _65  and  _67
REMARK   28  A    between atoms: _67  and  _68
REMARK   29  A    between atoms: _67  and  _70
REMARK   30  A    between atoms: _70  and  _71
REMARK   31  A    between atoms: _74  and  _76
REMARK   32  A    between atoms: _76  and  _77
REMARK   33  A    between atoms: _76  and  _79
REMARK   34  A    between atoms: _79  and  _80
REMARK   35  A    between atoms: _83  and  _85
REMARK   36  A    between atoms: _85  and  _86
REMARK   37  A    between atoms: _85  and  _88
REMARK   38  A    between atoms: _88  and  _89
REMARK   39  A    between atoms: _92  and  _94
REMARK   40  A    between atoms: _94  and  _95
REMARK   41  A    between atoms: _94  and  _97
REMARK   42  A    between atoms: _100  and  _102
REMARK   43  A    between atoms: _102  and  _103
REMARK   44  A    between atoms: _102  and  _105
REMARK   45  A    between atoms: _105  and  _106
REMARK   46  A    between atoms: _106  and  _107
REMARK   47  A    between atoms: _107  and  _108
REMARK   48  A    between atoms: _108  and  _109
REMARK   49  A    between atoms: _113  and  _115
REMARK   50  A    between atoms: _115  and  _116
REMARK   51  A    between atoms: _115  and  _118
REMARK   52  A    between atoms: _118  and  _119
REMARK   53  A    between atoms: _119  and  _120
REMARK   54  A    between atoms: _122  and  _124
REMARK   55  A    between atoms: _124  and  _125
REMARK   56  A    between atoms: _124  and  _127
REMARK   57  A    between atoms: _127  and  _128
REMARK   58  A    between atoms: _131  and  _133
REMARK   59  A    between atoms: _133  and  _134
REMARK   60  A    between atoms: _136  and  _138
REMARK   61  A    between atoms: _138  and  _139
REMARK   62  A    between atoms: _141  and  _143
REMARK   63  A    between atoms: _143  and  _144
REMARK   64  A    between atoms: _143  and  _146
REMARK   65  A    between atoms: _146  and  _147
REMARK   66  A    between atoms: _150  and  _152
REMARK   67  A    between atoms: _152  and  _153
REMARK   68  A    between atoms: _155  and  _157
REMARK   69  A    between atoms: _157  and  _158
REMARK   70  A    between atoms: _160  and  _162
REMARK   71  A    between atoms: _162  and  _163
REMARK   72  A    between atoms: _162  and  _165
REMARK   73  A    between atoms: _165  and  _166
REMARK   74  A    between atoms: _172  and  _174
REMARK   75  A    between atoms: _174  and  _175
REMARK   76  A    between atoms: _174  and  _177
REMARK   77  A    between atoms: _177  and  _178
REMARK   78  A    between atoms: _181  and  _183
REMARK   79  A    between atoms: _183  and  _184
REMARK   80  A    between atoms: _183  and  _186
REMARK   81  A    between atoms: _186  and  _187
REMARK   82  A    between atoms: _190  and  _192
REMARK   83  A    between atoms: _192  and  _193
REMARK   84  A    between atoms: _192  and  _195
REMARK   85  A    between atoms: _195  and  _196
REMARK   86  A    between atoms: _200  and  _201
REMARK   87  A    between atoms: _206  and  _208
REMARK   88  A    between atoms: _208  and  _209
REMARK   89  A    between atoms: _208  and  _211
REMARK   90  A    between atoms: _214  and  _216
REMARK   91  A    between atoms: _216  and  _217
REMARK   92  A    between atoms: _216  and  _219
REMARK   93  A    between atoms: _219  and  _220
REMARK   94  A    between atoms: _225  and  _227
REMARK   95  A    between atoms: _227  and  _228
REMARK   96  A    between atoms: _227  and  _230
REMARK   97  A    between atoms: _230  and  _231
REMARK   98  A    between atoms: _234  and  _236
REMARK   99  A    between atoms: _236  and  _237
REMARK  100  A    between atoms: _236  and  _239
REMARK  101  A    between atoms: _239  and  _240
REMARK  102  A    between atoms: _243  and  _245
REMARK  103  A    between atoms: _245  and  _246
REMARK  104  A    between atoms: _248  and  _250
REMARK  105  A    between atoms: _250  and  _251
REMARK  106  A    between atoms: _250  and  _253
REMARK  107  A    between atoms: _253  and  _254
REMARK  108  A    between atoms: _254  and  _255
REMARK  109  A    between atoms: _255  and  _256
REMARK  110  A    between atoms: _265  and  _267
REMARK  111  A    between atoms: _267  and  _268
REMARK  112  A    between atoms: _267  and  _270
REMARK  113  A    between atoms: _270  and  _271
REMARK  114  A    between atoms: _271  and  _272
REMARK  115  A    between atoms: _272  and  _273
REMARK  116  A    between atoms: _282  and  _284
REMARK  117  A    between atoms: _284  and  _285
REMARK  118  A    between atoms: _284  and  _287
REMARK  119  A    between atoms: _287  and  _288
REMARK  120  A    between atoms: _291  and  _293
REMARK  121  A    between atoms: _293  and  _294
REMARK  122  A    between atoms: _293  and  _296
REMARK  123  A    between atoms: _296  and  _297
REMARK  124  A    between atoms: _300  and  _302
REMARK  125  A    between atoms: _302  and  _303
REMARK  126  A    between atoms: _302  and  _305
REMARK  127  A    between atoms: _305  and  _306
REMARK  128  A    between atoms: _309  and  _311
REMARK  129  A    between atoms: _311  and  _312
REMARK  130  A    between atoms: _311  and  _314
REMARK  131  A    between atoms: _314  and  _315
REMARK  132  A    between atoms: _318  and  _320
REMARK  133  A    between atoms: _320  and  _321
REMARK  134  A    between atoms: _323  and  _325
REMARK  135  A    between atoms: _325  and  _326
REMARK  136  A    between atoms: _329  and  _331
REMARK  137  A    between atoms: _331  and  _332
REMARK  138  A    between atoms: _331  and  _334
REMARK  139  A    between atoms: _334  and  _335
REMARK  140  A    between atoms: _338  and  _340
REMARK  141  A    between atoms: _340  and  _341
REMARK  142  A    between atoms: _340  and  _343
REMARK  143  A    between atoms: _343  and  _344
REMARK  144  A    between atoms: _347  and  _349
REMARK  145  A    between atoms: _349  and  _350
REMARK  146  A    between atoms: _349  and  _352
REMARK  147  A    between atoms: _355  and  _357
REMARK  148  A    between atoms: _357  and  _358
REMARK  149  A    between atoms: _357  and  _360
REMARK  150  A    between atoms: _360  and  _361
REMARK  151  A    between atoms: _364  and  _366
REMARK  152  A    between atoms: _366  and  _367
REMARK  153  A    between atoms: _369  and  _371
REMARK  154  A    between atoms: _371  and  _372
REMARK  155  A    between atoms: _374  and  _376
REMARK  156  A    between atoms: _376  and  _377
REMARK  157  A    between atoms: _376  and  _379
REMARK  158  A    between atoms: _379  and  _380
REMARK  159  A    between atoms: _383  and  _385
REMARK  160  A    between atoms: _385  and  _386
REMARK  161  A    between atoms: _388  and  _390
REMARK  162  A    between atoms: _390  and  _391
REMARK  163  A    between atoms: _393  and  _395
REMARK  164  A    between atoms: _395  and  _396
REMARK  165  A    between atoms: _395  and  _398
REMARK  166  A    between atoms: _398  and  _399
REMARK  167  A    between atoms: _403  and  _404
REMARK  168  A    between atoms: _409  and  _411
REMARK  169  A    between atoms: _411  and  _412
REMARK  170  A    between atoms: _411  and  _414
REMARK  171  A    between atoms: _417  and  _419
REMARK  172  A    between atoms: _419  and  _420
REMARK  173  A    between atoms: _419  and  _422
REMARK  174  A    between atoms: _422  and  _423
REMARK  175  A    between atoms: _428  and  _430
REMARK  176  A    between atoms: _430  and  _431
REMARK  177  A    between atoms: _430  and  _433
REMARK  178  A    between atoms: _433  and  _434
REMARK  179  A    between atoms: _437  and  _439
REMARK  180  A    between atoms: _439  and  _440
REMARK  181  A    between atoms: _439  and  _442
REMARK  182  A    between atoms: _442  and  _443
REMARK                            x       y       z     vdW  Elec       q    Type
REMARK                         _______ _______ _______ _____ _____    ______ ____
ROOT
ATOM      1  C   GLY A   5      12.931  29.833   3.277  0.00  0.00    +0.243 C 
ATOM      2  N   ALA A   6      13.277  30.209   4.513  0.00  0.00    -0.297 N 
ATOM      3  H   ALA A   6      14.285  30.355   4.726  0.00  0.00    +0.150 HD
ATOM      4  O   GLY A   5      11.770  29.557   2.953  0.00  0.00    -0.273 OA
ENDROOT
BRANCH   2   5
ATOM      5  CA  ALA A   6      12.300  30.423   5.576  0.00  0.00    +0.149 C 
ATOM      6  CB  ALA A   6      12.905  30.086   6.914  0.00  0.00    +0.031 C 
BRANCH   5   7
ATOM      7  C   ALA A   6      11.711  31.861   5.606  0.00  0.00    +0.241 C 
ATOM      8  N   ASP A   7      10.386  31.959   5.682  0.00  0.00    -0.297 N 
ATOM      9  H   ASP A   7       9.818  31.088   5.687  0.00  0.00    +0.150 HD
ATOM     10  O   ALA A   6      12.441  32.847   5.540  0.00  0.00    -0.273 OA
BRANCH   8  11
ATOM     11  CA  ASP A   7       9.704  33.244   5.759  0.00  0.00    +0.160 C 
BRANCH  11  12
ATOM     12  C   ASP A   7      10.047  33.925   7.071  0.00  0.00    +0.241 C 
ATOM     13  N   ASP A   8       9.908  33.193   8.173  0.00  0.00    -0.297 N 
ATOM     14  H   ASP A   8       9.595  32.205   8.086  0.00  0.00    +0.150 HD
ATOM     15  O   ASP A   7      10.444  35.100   7.086  0.00  0.00    -0.273 OA
BRANCH  13  16
ATOM     16  CA  ASP A   8      10.182  33.736   9.505  0.00  0.00    +0.160 C 
BRANCH  16  17
ATOM     17  C   ASP A   8      11.365  33.105  10.256  0.00  0.00    +0.241 C 
ATOM     18  N   THR A   9      11.705  33.688  11.402  0.00  0.00    -0.295 N 
ATOM     19  H   THR A   9      11.186  34.539  11.699  0.00  0.00    +0.150 HD
ATOM     20  O   ASP A   8      11.940  32.120   9.823  0.00  0.00    -0.273 OA
BRANCH  18  21
ATOM     21  CA  THR A   9      12.770  33.190  12.259  0.00  0.00    +0.176 C 
BRANCH  21  22
ATOM     22  C   THR A   9      12.173  32.206  13.267  0.00  0.00    +0.243 C 
ATOM     23  O   THR A   9      11.153  32.509  13.887  0.00  0.00    -0.273 OA
ATOM     24  N   VAL A  10      12.777  31.029  13.402  0.00  0.00    -0.298 N 
ATOM     25  H   VAL A  10      13.625  30.828  12.834  0.00  0.00    +0.150 HD
BRANCH  24  26
ATOM     26  CA  VAL A  10      12.282  30.005  14.329  0.00  0.00    +0.137 C 
BRANCH  26  27
ATOM     27  CB  VAL A  10      11.770  28.732  13.591  0.00  0.00    +0.026 C 
ATOM     28  CG2 VAL A  10      10.902  27.881  14.519  0.00  0.00    +0.002 C 
ATOM     29  CG1 VAL A  10      11.013  29.100  12.351  0.00  0.00    +0.002 C 
ENDBRANCH  26  27
BRANCH  26  30
ATOM     30  C   VAL A  10      13.405  29.576  15.251  0.00  0.00    +0.227 C 
ATOM     31  O   VAL A  10      14.452  29.149  14.778  0.00  0.00    -0.286 OA
ENDBRANCH  26  30
ENDBRANCH  24  26
ENDBRANCH  21  22
BRANCH  21  32
ATOM     32  CB  THR A   9      13.388  34.328  13.008  0.00  0.00    +0.137 C 
ATOM     33  CG2 THR A   9      14.448  33.848  14.016  0.00  0.00    +0.034 C 
BRANCH  32  34
ATOM     34  OG1 THR A   9      13.982  35.202  12.057  0.00  0.00    -0.382 OA
ATOM     35  HG1 THR A   9      13.286  35.536  11.437  0.00  0.00    +0.210 HD
ENDBRANCH  32  34
ENDBRANCH  21  32
ENDBRANCH  18  21
ENDBRANCH  16  17
BRANCH  16  36
ATOM     36  CB  ASP A   8       8.935  33.586  10.388  0.00  0.00    +0.143 C 
BRANCH  36  37
ATOM     37  CG  ASP A   8       7.694  34.222   9.791  0.00  0.00    +0.367 C 
ATOM     38  OD2 ASP A   8       7.625  35.472   9.749  0.00  0.00    -0.246 OA
ATOM     39  OD1 ASP A   8       6.764  33.473   9.409  0.00  0.00    -0.246 OA
ENDBRANCH  36  37
ENDBRANCH  16  36
ENDBRANCH  13  16
ENDBRANCH  11  12
BRANCH  11  40
ATOM     40  CB  ASP A   7       8.187  33.060   5.709  0.00  0.00    +0.143 C 
BRANCH  40  41
ATOM     41  CG  ASP A   7       7.675  32.609   4.346  0.00  0.00    +0.367 C 
ATOM     42  OD2 ASP A   7       6.519  32.170   4.293  0.00  0.00    -0.246 OA
ATOM     43  OD1 ASP A   7       8.401  32.704   3.338  0.00  0.00    -0.246 OA
ENDBRANCH  40  41
ENDBRANCH  11  40
ENDBRANCH   8  11
ENDBRANCH   5   7
ENDBRANCH   2   5
BRANCH   1  44
ATOM     44  CA  GLY A   5      14.032  29.675   2.246  0.00  0.00    +0.176 C 
BRANCH  44  46
ATOM     45  C   THR A   4      15.466  31.639   2.198  0.00  0.00    +0.243 C 
ATOM     46  N   GLY A   5      15.269  30.370   2.549  0.00  0.00    -0.295 N 
ATOM     47  H   GLY A   5      16.023  29.863   3.055  0.00  0.00    +0.150 HD
ATOM     48  O   THR A   4      14.620  32.321   1.623  0.00  0.00    -0.273 OA
BRANCH  45  49
ATOM     49  CA  THR A   4      16.820  32.234   2.581  0.00  0.00    +0.176 C 
BRANCH  49  52
ATOM     50  C   ASP A   3      17.203  31.340   4.859  0.00  0.00    +0.241 C 
ATOM     51  O   ASP A   3      16.161  31.810   5.304  0.00  0.00    -0.273 OA
ATOM     52  N   THR A   4      17.553  31.422   3.563  0.00  0.00    -0.295 N 
ATOM     53  H   THR A   4      18.383  30.885   3.240  0.00  0.00    +0.150 HD
BRANCH  50  54
ATOM     54  CA  ASP A   3      18.080  30.456   5.747  0.00  0.00    +0.160 C 
BRANCH  54  56
ATOM     55  C   LEU A   2      20.247  31.058   6.694  0.00  0.00    +0.241 C 
ATOM     56  N   ASP A   3      18.925  31.195   6.684  0.00  0.00    -0.297 N 
ATOM     57  H   ASP A   3      18.479  31.846   7.362  0.00  0.00    +0.150 HD
ATOM     58  O   LEU A   2      20.846  30.383   5.866  0.00  0.00    -0.273 OA
BRANCH  55  59
ATOM     59  CA  LEU A   2      21.023  31.816   7.770  0.00  0.00    +0.149 C 
BRANCH  59  62
ATOM     60  C   LEU A   1      20.912  30.184   9.596  0.00  0.00    +0.238 C 
ATOM     61  O   LEU A   1      19.725  30.404   9.784  0.00  0.00    -0.274 OA
ATOM     62  N   LEU A   2      21.625  30.820   8.666  0.00  0.00    -0.297 N 
ATOM     63  H   LEU A   2      22.638  30.604   8.572  0.00  0.00    +0.150 HD
BRANCH  60  64
ATOM     64  CA  LEU A   1      21.627  29.145  10.450  0.00  0.00    +0.145 C 
BRANCH  64  65
ATOM     65  N   LEU A   1      21.430  29.404  11.865  0.00  0.00    -0.238 NA
ATOM     66  H   LEU A   1      20.509  29.160  12.281  0.00  0.00    +0.142 HD
ENDBRANCH  64  65
BRANCH  64  67
ATOM     67  CB  LEU A   1      21.027  27.779  10.129  0.00  0.00    +0.026 C 
BRANCH  67  68
ATOM     68  CG  LEU A   1      21.386  27.162   8.784  0.00  0.00    +0.002 C 
ATOM     69  CD2 LEU A   1      22.895  26.957   8.769  0.00  0.00    +0.000 C 
ATOM     70  CD1 LEU A   1      20.644  25.803   8.562  0.00  0.00    +0.000 C 
ENDBRANCH  67  68
ENDBRANCH  64  67
ENDBRANCH  60  64
ENDBRANCH  59  62
BRANCH  59  71
ATOM     71  CB  LEU A   2      22.111  32.700   7.150  0.00  0.00    +0.029 C 
BRANCH  71  72
ATOM     72  CG  LEU A   2      22.987  33.472   8.152  0.00  0.00    +0.002 C 
ATOM     73  CD2 LEU A   2      22.150  34.362   9.029  0.00  0.00    +0.000 C 
ATOM     74  CD1 LEU A   2      24.055  34.285   7.433  0.00  0.00    +0.000 C 
ENDBRANCH  71  72
ENDBRANCH  59  71
ENDBRANCH  55  59
ENDBRANCH  54  56
BRANCH  54  75
ATOM     75  CB  ASP A   3      17.196  29.495   6.557  0.00  0.00    +0.143 C 
BRANCH  75  76
ATOM     76  CG  ASP A   3      16.500  28.457   5.718  0.00  0.00    +0.367 C 
ATOM     77  OD2 ASP A   3      16.043  27.465   6.296  0.00  0.00    -0.246 OA
ATOM     78  OD1 ASP A   3      16.378  28.611   4.504  0.00  0.00    -0.246 OA
ENDBRANCH  75  76
ENDBRANCH  54  75
ENDBRANCH  50  54
ENDBRANCH  49  52
BRANCH  49  79
ATOM     79  CB  THR A   4      17.652  32.486   1.292  0.00  0.00    +0.137 C 
ATOM     80  CG2 THR A   4      18.871  33.350   1.587  0.00  0.00    +0.034 C 
BRANCH  79  81
ATOM     81  OG1 THR A   4      18.088  31.240   0.741  0.00  0.00    -0.382 OA
ATOM     82  HG1 THR A   4      17.299  30.685   0.517  0.00  0.00    +0.210 HD
ENDBRANCH  79  81
ENDBRANCH  49  79
ENDBRANCH  45  49
ENDBRANCH  44  46
ENDBRANCH   1  44
TORSDOF 35
REMARK  Name = ../refined-set-2016/7upj/7upj_pocket.pdb
REMARK  182 active torsions:
REMARK  status: ('A' for Active; 'I' for Inactive)
REMARK    1  A    between atoms: _1  and  _3
REMARK    2  A    between atoms: _3  and  _4
REMARK    3  A    between atoms: _3  and  _6
REMARK    4  A    between atoms: _6  and  _7
REMARK    5  A    between atoms: _7  and  _8
REMARK    6  A    between atoms: _8  and  _9
REMARK    7  A    between atoms: _18  and  _20
REMARK    8  A    between atoms: _20  and  _21
REMARK    9  A    between atoms: _20  and  _23
REMARK   10  A    between atoms: _23  and  _24
REMARK   11  A    between atoms: _27  and  _29
REMARK   12  A    between atoms: _29  and  _30
REMARK   13  A    between atoms: _29  and  _32
REMARK   14  A    between atoms: _32  and  _33
REMARK   15  A    between atoms: _36  and  _38
REMARK   16  A    between atoms: _38  and  _39
REMARK   17  A    between atoms: _38  and  _41
REMARK   18  A    between atoms: _41  and  _42
REMARK   19  A    between atoms: _45  and  _47
REMARK   20  A    between atoms: _47  and  _48
REMARK   21  A    between atoms: _47  and  _50
REMARK   22  A    between atoms: _50  and  _51
REMARK   23  A    between atoms: _54  and  _56
REMARK   24  A    between atoms: _56  and  _57
REMARK   25  A    between atoms: _59  and  _61
REMARK   26  A    between atoms: _61  and  _62
REMARK   27  A    between atoms: _65  and  _67
REMARK   28  A    between atoms: _67  and  _68
REMARK   29  A    between atoms: _67  and  _70
REMARK   30  A    between atoms: _70  and  _71
REMARK   31  A    between atoms: _74  and  _76
REMARK   32  A    between atoms: _76  and  _77
REMARK   33  A    between atoms: _76  and  _79
REMARK   34  A    between atoms: _79  and  _80
REMARK   35  A    between atoms: _83  and  _85
REMARK   36  A    between atoms: _85  and  _86
REMARK   37  A    between atoms: _85  and  _88
REMARK   38  A    between atoms: _88  and  _89
REMARK   39  A    between atoms: _92  and  _94
REMARK   40  A    between atoms: _94  and  _95
REMARK   41  A    between atoms: _94  and  _97
REMARK   42  A    between atoms: _100  and  _102
REMARK   43  A    between atoms: _102  and  _103
REMARK   44  A    between atoms: _102  and  _105
REMARK   45  A    between atoms: _105  and  _106
REMARK   46  A    between atoms: _106  and  _107
REMARK   47  A    between atoms: _107  and  _108
REMARK   48  A    between atoms: _108  and  _109
REMARK   49  A    between atoms: _113  and  _115
REMARK   50  A    between atoms: _115  and  _116
REMARK   51  A    between atoms: _115  and  _118
REMARK   52  A    between atoms: _118  and  _119
REMARK   53  A    between atoms: _119  and  _120
REMARK   54  A    between atoms: _122  and  _124
REMARK   55  A    between atoms: _124  and  _125
REMARK   56  A    between atoms: _124  and  _127
REMARK   57  A    between atoms: _127  and  _128
REMARK   58  A    between atoms: _131  and  _133
REMARK   59  A    between atoms: _133  and  _134
REMARK   60  A    between atoms: _136  and  _138
REMARK   61  A    between atoms: _138  and  _139
REMARK   62  A    between atoms: _141  and  _143
REMARK   63  A    between atoms: _143  and  _144
REMARK   64  A    between atoms: _143  and  _146
REMARK   65  A    between atoms: _146  and  _147
REMARK   66  A    between atoms: _150  and  _152
REMARK   67  A    between atoms: _152  and  _153
REMARK   68  A    between atoms: _155  and  _157
REMARK   69  A    between atoms: _157  and  _158
REMARK   70  A    between atoms: _160  and  _162
REMARK   71  A    between atoms: _162  and  _163
REMARK   72  A    between atoms: _162  and  _165
REMARK   73  A    between atoms: _165  and  _166
REMARK   74  A    between atoms: _172  and  _174
REMARK   75  A    between atoms: _174  and  _175
REMARK   76  A    between atoms: _174  and  _177
REMARK   77  A    between atoms: _177  and  _178
REMARK   78  A    between atoms: _181  and  _183
REMARK   79  A    between atoms: _183  and  _184
REMARK   80  A    between atoms: _183  and  _186
REMARK   81  A    between atoms: _186  and  _187
REMARK   82  A    between atoms: _190  and  _192
REMARK   83  A    between atoms: _192  and  _193
REMARK   84  A    between atoms: _192  and  _195
REMARK   85  A    between atoms: _195  and  _196
REMARK   86  A    between atoms: _200  and  _201
REMARK   87  A    between atoms: _206  and  _208
REMARK   88  A    between atoms: _208  and  _209
REMARK   89  A    between atoms: _208  and  _211
REMARK   90  A    between atoms: _214  and  _216
REMARK   91  A    between atoms: _216  and  _217
REMARK   92  A    between atoms: _216  and  _219
REMARK   93  A    between atoms: _219  and  _220
REMARK   94  A    between atoms: _225  and  _227
REMARK   95  A    between atoms: _227  and  _228
REMARK   96  A    between atoms: _227  and  _230
REMARK   97  A    between atoms: _230  and  _231
REMARK   98  A    between atoms: _234  and  _236
REMARK   99  A    between atoms: _236  and  _237
REMARK  100  A    between atoms: _236  and  _239
REMARK  101  A    between atoms: _239  and  _240
REMARK  102  A    between atoms: _243  and  _245
REMARK  103  A    between atoms: _245  and  _246
REMARK  104  A    between atoms: _248  and  _250
REMARK  105  A    between atoms: _250  and  _251
REMARK  106  A    between atoms: _250  and  _253
REMARK  107  A    between atoms: _253  and  _254
REMARK  108  A    between atoms: _254  and  _255
REMARK  109  A    between atoms: _255  and  _256
REMARK  110  A    between atoms: _265  and  _267
REMARK  111  A    between atoms: _267  and  _268
REMARK  112  A    between atoms: _267  and  _270
REMARK  113  A    between atoms: _270  and  _271
REMARK  114  A    between atoms: _271  and  _272
REMARK  115  A    between atoms: _272  and  _273
REMARK  116  A    between atoms: _282  and  _284
REMARK  117  A    between atoms: _284  and  _285
REMARK  118  A    between atoms: _284  and  _287
REMARK  119  A    between atoms: _287  and  _288
REMARK  120  A    between atoms: _291  and  _293
REMARK  121  A    between atoms: _293  and  _294
REMARK  122  A    between atoms: _293  and  _296
REMARK  123  A    between atoms: _296  and  _297
REMARK  124  A    between atoms: _300  and  _302
REMARK  125  A    between atoms: _302  and  _303
REMARK  126  A    between atoms: _302  and  _305
REMARK  127  A    between atoms: _305  and  _306
REMARK  128  A    between atoms: _309  and  _311
REMARK  129  A    between atoms: _311  and  _312
REMARK  130  A    between atoms: _311  and  _314
REMARK  131  A    between atoms: _314  and  _315
REMARK  132  A    between atoms: _318  and  _320
REMARK  133  A    between atoms: _320  and  _321
REMARK  134  A    between atoms: _323  and  _325
REMARK  135  A    between atoms: _325  and  _326
REMARK  136  A    between atoms: _329  and  _331
REMARK  137  A    between atoms: _331  and  _332
REMARK  138  A    between atoms: _331  and  _334
REMARK  139  A    between atoms: _334  and  _335
REMARK  140  A    between atoms: _338  and  _340
REMARK  141  A    between atoms: _340  and  _341
REMARK  142  A    between atoms: _340  and  _343
REMARK  143  A    between atoms: _343  and  _344
REMARK  144  A    between atoms: _347  and  _349
REMARK  145  A    between atoms: _349  and  _350
REMARK  146  A    between atoms: _349  and  _352
REMARK  147  A    between atoms: _355  and  _357
REMARK  148  A    between atoms: _357  and  _358
REMARK  149  A    between atoms: _357  and  _360
REMARK  150  A    between atoms: _360  and  _361
REMARK  151  A    between atoms: _364  and  _366
REMARK  152  A    between atoms: _366  and  _367
REMARK  153  A    between atoms: _369  and  _371
REMARK  154  A    between atoms: _371  and  _372
REMARK  155  A    between atoms: _374  and  _376
REMARK  156  A    between atoms: _376  and  _377
REMARK  157  A    between atoms: _376  and  _379
REMARK  158  A    between atoms: _379  and  _380
REMARK  159  A    between atoms: _383  and  _385
REMARK  160  A    between atoms: _385  and  _386
REMARK  161  A    between atoms: _388  and  _390
REMARK  162  A    between atoms: _390  and  _391
REMARK  163  A    between atoms: _393  and  _395
REMARK  164  A    between atoms: _395  and  _396
REMARK  165  A    between atoms: _395  and  _398
REMARK  166  A    between atoms: _398  and  _399
REMARK  167  A    between atoms: _403  and  _404
REMARK  168  A    between atoms: _409  and  _411
REMARK  169  A    between atoms: _411  and  _412
REMARK  170  A    between atoms: _411  and  _414
REMARK  171  A    between atoms: _417  and  _419
REMARK  172  A    between atoms: _419  and  _420
REMARK  173  A    between atoms: _419  and  _422
REMARK  174  A    between atoms: _422  and  _423
REMARK  175  A    between atoms: _428  and  _430
REMARK  176  A    between atoms: _430  and  _431
REMARK  177  A    between atoms: _430  and  _433
REMARK  178  A    between atoms: _433  and  _434
REMARK  179  A    between atoms: _437  and  _439
REMARK  180  A    between atoms: _439  and  _440
REMARK  181  A    between atoms: _439  and  _442
REMARK  182  A    between atoms: _442  and  _443
REMARK                            x       y       z     vdW  Elec       q    Type
REMARK                         _______ _______ _______ _____ _____    ______ ____
ROOT
ATOM      1  C   GLY A   5       8.171  20.951   5.572  0.00  0.00    +0.243 C 
ATOM      2  O   GLY A   5       7.229  20.177   5.470  0.00  0.00    -0.273 OA
ATOM      3  N   ILE A   6       9.420  20.584   5.347  0.00  0.00    -0.297 N 
ATOM      4  H   ILE A   6      10.178  21.290   5.437  0.00  0.00    +0.150 HD
ENDROOT
BRANCH   3   5
ATOM      5  CA  ILE A   6       9.762  19.232   4.980  0.00  0.00    +0.149 C 
BRANCH   5   6
ATOM      6  C   ILE A   6       9.415  18.328   6.145  0.00  0.00    +0.241 C 
ATOM      7  O   ILE A   6       9.910  18.528   7.262  0.00  0.00    -0.273 OA
ATOM      8  N   GLY A   7       8.497  17.398   5.917  0.00  0.00    -0.295 N 
ATOM      9  H   GLY A   7       8.053  17.328   4.979  0.00  0.00    +0.150 HD
BRANCH   8  10
ATOM     10  CA  GLY A   7       8.109  16.476   6.972  0.00  0.00    +0.176 C 
BRANCH  10  11
ATOM     11  C   GLY A   7       6.832  16.747   7.755  0.00  0.00    +0.243 C 
ATOM     12  O   GLY A   7       6.420  15.896   8.553  0.00  0.00    -0.273 OA
ATOM     13  N   GLY A   8       6.194  17.900   7.555  0.00  0.00    -0.295 N 
ATOM     14  H   GLY A   8       6.576  18.595   6.883  0.00  0.00    +0.150 HD
BRANCH  13  15
ATOM     15  CA  GLY A   8       4.965  18.186   8.276  0.00  0.00    +0.176 C 
BRANCH  15  16
ATOM     16  C   GLY A   8       4.910  19.537   8.966  0.00  0.00    +0.243 C 
ATOM     17  N   PHE A   9       3.914  19.720   9.827  0.00  0.00    -0.297 N 
ATOM     18  H   PHE A   9       3.253  18.933   9.984  0.00  0.00    +0.150 HD
ATOM     19  O   GLY A   8       5.766  20.379   8.741  0.00  0.00    -0.273 OA
BRANCH  17  20
ATOM     20  CA  PHE A   9       3.694  20.957  10.563  0.00  0.00    +0.153 C 
BRANCH  20  21
ATOM     21  C   PHE A   9       4.110  20.859  12.028  0.00  0.00    +0.241 C 
ATOM     22  N   ILE A  10       4.525  21.992  12.628  0.00  0.00    -0.298 N 
ATOM     23  H   ILE A  10       4.598  22.854  12.050  0.00  0.00    +0.150 HD
ATOM     24  O   PHE A   9       4.088  19.759  12.578  0.00  0.00    -0.273 OA
BRANCH  22  25
ATOM     25  CA  ILE A  10       4.883  22.082  14.062  0.00  0.00    +0.137 C 
BRANCH  25  26
ATOM     26  C   ILE A  10       4.142  23.279  14.682  0.00  0.00    +0.227 C 
ATOM     27  O   ILE A  10       3.889  24.277  14.002  0.00  0.00    -0.286 OA
ENDBRANCH  25  26
BRANCH  25  28
ATOM     28  CB  ILE A  10       6.434  22.245  14.357  0.00  0.00    +0.026 C 
ATOM     29  CG2 ILE A  10       7.190  21.050  13.876  0.00  0.00    +0.002 C 
BRANCH  28  30
ATOM     30  CG1 ILE A  10       6.999  23.570  13.808  0.00  0.00    +0.002 C 
ATOM     31  CD1 ILE A  10       8.473  23.845  14.145  0.00  0.00    +0.000 C 
ENDBRANCH  28  30
ENDBRANCH  25  28
ENDBRANCH  22  25
ENDBRANCH  20  21
BRANCH  20  32
ATOM     32  CB  PHE A   9       2.203  21.307  10.507  0.00  0.00    +0.055 C 
BRANCH  32  33
ATOM     33  CG  PHE A   9       1.754  21.836   9.178  0.00  0.00    -0.020 A 
ATOM     34  CD2 PHE A   9       1.497  23.201   9.010  0.00  0.00    -0.004 A 
ATOM     35  CE2 PHE A   9       1.145  23.711   7.774  0.00  0.00    -0.000 A 
ATOM     36  CZ  PHE A   9       1.040  22.863   6.680  0.00  0.00    -0.000 A 
ATOM     37  CE1 PHE A   9       1.287  21.494   6.837  0.00  0.00    -0.000 A 
ATOM     38  CD1 PHE A   9       1.640  20.992   8.081  0.00  0.00    -0.004 A 
ENDBRANCH  32  33
ENDBRANCH  20  32
ENDBRANCH  17  20
ENDBRANCH  15  16
ENDBRANCH  13  15
ENDBRANCH  10  11
ENDBRANCH   8  10
ENDBRANCH   5   6
BRANCH   5  39
ATOM     39  CB  ILE A   6      11.259  19.142   4.679  0.00  0.00    +0.027 C 
ATOM     40  CG2 ILE A   6      11.693  17.686   4.552  0.00  0.00    +0.002 C 
BRANCH  39  41
ATOM     41  CG1 ILE A   6      11.569  19.975   3.428  0.00  0.00    +0.002 C 
ATOM     42  CD1 ILE A   6      13.037  20.168   3.151  0.00  0.00    +0.000 C 
ENDBRANCH  39  41
ENDBRANCH   5  39
ENDBRANCH   3   5
BRANCH   1  43
ATOM     43  CA  GLY A   5       7.937  22.398   5.968  0.00  0.00    +0.176 C 
BRANCH  43  45
ATOM     44  C   GLY A   4       6.160  23.658   7.029  0.00  0.00    +0.243 C 
ATOM     45  N   GLY A   5       6.743  22.492   6.785  0.00  0.00    -0.295 N 
ATOM     46  H   GLY A   5       6.334  21.625   7.189  0.00  0.00    +0.150 HD
ATOM     47  O   GLY A   4       6.594  24.728   6.595  0.00  0.00    -0.273 OA
BRANCH  44  48
ATOM     48  CA  GLY A   4       4.912  23.599   7.900  0.00  0.00    +0.176 C 
BRANCH  48  51
ATOM     49  C   ILE A   3       4.547  25.001   9.845  0.00  0.00    +0.241 C 
ATOM     50  O   ILE A   3       4.923  24.132  10.636  0.00  0.00    -0.273 OA
ATOM     51  N   GLY A   4       4.512  24.852   8.527  0.00  0.00    -0.295 N 
ATOM     52  H   GLY A   4       4.194  25.643   7.931  0.00  0.00    +0.150 HD
BRANCH  49  53
ATOM     53  CA  ILE A   3       4.084  26.339  10.358  0.00  0.00    +0.149 C 
BRANCH  53  55
ATOM     54  C   MET A   2       2.063  26.614  11.640  0.00  0.00    +0.241 C 
ATOM     55  N   ILE A   3       3.283  26.095  11.550  0.00  0.00    -0.297 N 
ATOM     56  H   ILE A   3       3.664  25.518  12.327  0.00  0.00    +0.150 HD
ATOM     57  O   MET A   2       1.600  27.363  10.788  0.00  0.00    -0.273 OA
BRANCH  54  58
ATOM     58  CA  MET A   2       1.235  26.284  12.869  0.00  0.00    +0.149 C 
BRANCH  58  61
ATOM     59  C   LYS A   1       0.882  27.856  14.677  0.00  0.00    +0.238 C 
ATOM     60  O   LYS A   1       1.394  27.089  15.479  0.00  0.00    -0.274 OA
ATOM     61  N   MET A   2       0.727  27.544  13.403  0.00  0.00    -0.297 N 
ATOM     62  H   MET A   2       0.235  28.207  12.770  0.00  0.00    +0.150 HD
BRANCH  59  63
ATOM     63  CA  LYS A   1       0.348  29.223  15.126  0.00  0.00    +0.145 C 
BRANCH  63  64
ATOM     64  N   LYS A   1       0.388  29.309  16.593  0.00  0.00    -0.238 NA
ATOM     65  H   LYS A   1       1.072  28.716  17.105  0.00  0.00    +0.142 HD
ENDBRANCH  63  64
BRANCH  63  66
ATOM     66  CB  LYS A   1       1.247  30.319  14.551  0.00  0.00    +0.026 C 
BRANCH  66  67
ATOM     67  CG  LYS A   1       1.129  30.569  13.083  0.00  0.00    -0.000 C 
BRANCH  67  68
ATOM     68  CD  LYS A   1       2.203  31.578  12.616  0.00  0.00    -0.024 C 
BRANCH  68  69
ATOM     69  CE  LYS A   1       2.069  31.859  11.097  0.00  0.00    -0.086 C 
BRANCH  69  70
ATOM     70  NZ  LYS A   1       3.135  32.700  10.468  0.00  0.00    +0.380 N 
ATOM     71  HZ1 LYS A   1       3.154  33.633  10.926  0.00  0.00    -0.089 HD
ATOM     72  HZ2 LYS A   1       4.057  32.235  10.588  0.00  0.00    -0.089 HD
ATOM     73  HZ3 LYS A   1       2.932  32.814   9.454  0.00  0.00    -0.089 HD
ENDBRANCH  69  70
ENDBRANCH  68  69
ENDBRANCH  67  68
ENDBRANCH  66  67
ENDBRANCH  63  66
ENDBRANCH  59  63
ENDBRANCH  58  61
BRANCH  58  74
ATOM     74  CB  MET A   2       0.092  25.361  12.421  0.00  0.00    +0.041 C 
BRANCH  74  75
ATOM     75  CG  MET A   2      -0.839  24.881  13.513  0.00  0.00    +0.060 C 
BRANCH  75  76
ATOM     76  SD  MET A   2      -0.165  23.445  14.295  0.00  0.00    -0.139 S 
ATOM     77  CE  MET A   2      -0.612  22.146  13.144  0.00  0.00    +0.069 C 
ENDBRANCH  75  76
ENDBRANCH  74  75
ENDBRANCH  58  74
ENDBRANCH  54  58
ENDBRANCH  53  55
BRANCH  53  78
ATOM     78  CB  ILE A   3       5.308  27.218  10.624  0.00  0.00    +0.027 C 
ATOM     79  CG2 ILE A   3       4.890  28.661  10.825  0.00  0.00    +0.002 C 
BRANCH  78  80
ATOM     80  CG1 ILE A   3       6.118  26.642  11.782  0.00  0.00    +0.002 C 
ATOM     81  CD1 ILE A   3       7.317  27.487  12.152  0.00  0.00    +0.000 C 
ENDBRANCH  78  80
ENDBRANCH  53  78
ENDBRANCH  49  53
ENDBRANCH  48  51
ENDBRANCH  44  48
ENDBRANCH  43  45
ENDBRANCH   1  43
TORSDOF 36
REMARK  Name = ../refined-set-2016/7upj/7upj_pocket.pdb
REMARK  182 active torsions:
REMARK  status: ('A' for Active; 'I' for Inactive)
REMARK    1  A    between atoms: _1  and  _3
REMARK    2  A    between atoms: _3  and  _4
REMARK    3  A    between atoms: _3  and  _6
REMARK    4  A    between atoms: _6  and  _7
REMARK    5  A    between atoms: _7  and  _8
REMARK    6  A    between atoms: _8  and  _9
REMARK    7  A    between atoms: _18  and  _20
REMARK    8  A    between atoms: _20  and  _21
REMARK    9  A    between atoms: _20  and  _23
REMARK   10  A    between atoms: _23  and  _24
REMARK   11  A    between atoms: _27  and  _29
REMARK   12  A    between atoms: _29  and  _30
REMARK   13  A    between atoms: _29  and  _32
REMARK   14  A    between atoms: _32  and  _33
REMARK   15  A    between atoms: _36  and  _38
REMARK   16  A    between atoms: _38  and  _39
REMARK   17  A    between atoms: _38  and  _41
REMARK   18  A    between atoms: _41  and  _42
REMARK   19  A    between atoms: _45  and  _47
REMARK   20  A    between atoms: _47  and  _48
REMARK   21  A    between atoms: _47  and  _50
REMARK   22  A    between atoms: _50  and  _51
REMARK   23  A    between atoms: _54  and  _56
REMARK   24  A    between atoms: _56  and  _57
REMARK   25  A    between atoms: _59  and  _61
REMARK   26  A    between atoms: _61  and  _62
REMARK   27  A    between atoms: _65  and  _67
REMARK   28  A    between atoms: _67  and  _68
REMARK   29  A    between atoms: _67  and  _70
REMARK   30  A    between atoms: _70  and  _71
REMARK   31  A    between atoms: _74  and  _76
REMARK   32  A    between atoms: _76  and  _77
REMARK   33  A    between atoms: _76  and  _79
REMARK   34  A    between atoms: _79  and  _80
REMARK   35  A    between atoms: _83  and  _85
REMARK   36  A    between atoms: _85  and  _86
REMARK   37  A    between atoms: _85  and  _88
REMARK   38  A    between atoms: _88  and  _89
REMARK   39  A    between atoms: _92  and  _94
REMARK   40  A    between atoms: _94  and  _95
REMARK   41  A    between atoms: _94  and  _97
REMARK   42  A    between atoms: _100  and  _102
REMARK   43  A    between atoms: _102  and  _103
REMARK   44  A    between atoms: _102  and  _105
REMARK   45  A    between atoms: _105  and  _106
REMARK   46  A    between atoms: _106  and  _107
REMARK   47  A    between atoms: _107  and  _108
REMARK   48  A    between atoms: _108  and  _109
REMARK   49  A    between atoms: _113  and  _115
REMARK   50  A    between atoms: _115  and  _116
REMARK   51  A    between atoms: _115  and  _118
REMARK   52  A    between atoms: _118  and  _119
REMARK   53  A    between atoms: _119  and  _120
REMARK   54  A    between atoms: _122  and  _124
REMARK   55  A    between atoms: _124  and  _125
REMARK   56  A    between atoms: _124  and  _127
REMARK   57  A    between atoms: _127  and  _128
REMARK   58  A    between atoms: _131  and  _133
REMARK   59  A    between atoms: _133  and  _134
REMARK   60  A    between atoms: _136  and  _138
REMARK   61  A    between atoms: _138  and  _139
REMARK   62  A    between atoms: _141  and  _143
REMARK   63  A    between atoms: _143  and  _144
REMARK   64  A    between atoms: _143  and  _146
REMARK   65  A    between atoms: _146  and  _147
REMARK   66  A    between atoms: _150  and  _152
REMARK   67  A    between atoms: _152  and  _153
REMARK   68  A    between atoms: _155  and  _157
REMARK   69  A    between atoms: _157  and  _158
REMARK   70  A    between atoms: _160  and  _162
REMARK   71  A    between atoms: _162  and  _163
REMARK   72  A    between atoms: _162  and  _165
REMARK   73  A    between atoms: _165  and  _166
REMARK   74  A    between atoms: _172  and  _174
REMARK   75  A    between atoms: _174  and  _175
REMARK   76  A    between atoms: _174  and  _177
REMARK   77  A    between atoms: _177  and  _178
REMARK   78  A    between atoms: _181  and  _183
REMARK   79  A    between atoms: _183  and  _184
REMARK   80  A    between atoms: _183  and  _186
REMARK   81  A    between atoms: _186  and  _187
REMARK   82  A    between atoms: _190  and  _192
REMARK   83  A    between atoms: _192  and  _193
REMARK   84  A    between atoms: _192  and  _195
REMARK   85  A    between atoms: _195  and  _196
REMARK   86  A    between atoms: _200  and  _201
REMARK   87  A    between atoms: _206  and  _208
REMARK   88  A    between atoms: _208  and  _209
REMARK   89  A    between atoms: _208  and  _211
REMARK   90  A    between atoms: _214  and  _216
REMARK   91  A    between atoms: _216  and  _217
REMARK   92  A    between atoms: _216  and  _219
REMARK   93  A    between atoms: _219  and  _220
REMARK   94  A    between atoms: _225  and  _227
REMARK   95  A    between atoms: _227  and  _228
REMARK   96  A    between atoms: _227  and  _230
REMARK   97  A    between atoms: _230  and  _231
REMARK   98  A    between atoms: _234  and  _236
REMARK   99  A    between atoms: _236  and  _237
REMARK  100  A    between atoms: _236  and  _239
REMARK  101  A    between atoms: _239  and  _240
REMARK  102  A    between atoms: _243  and  _245
REMARK  103  A    between atoms: _245  and  _246
REMARK  104  A    between atoms: _248  and  _250
REMARK  105  A    between atoms: _250  and  _251
REMARK  106  A    between atoms: _250  and  _253
REMARK  107  A    between atoms: _253  and  _254
REMARK  108  A    between atoms: _254  and  _255
REMARK  109  A    between atoms: _255  and  _256
REMARK  110  A    between atoms: _265  and  _267
REMARK  111  A    between atoms: _267  and  _268
REMARK  112  A    between atoms: _267  and  _270
REMARK  113  A    between atoms: _270  and  _271
REMARK  114  A    between atoms: _271  and  _272
REMARK  115  A    between atoms: _272  and  _273
REMARK  116  A    between atoms: _282  and  _284
REMARK  117  A    between atoms: _284  and  _285
REMARK  118  A    between atoms: _284  and  _287
REMARK  119  A    between atoms: _287  and  _288
REMARK  120  A    between atoms: _291  and  _293
REMARK  121  A    between atoms: _293  and  _294
REMARK  122  A    between atoms: _293  and  _296
REMARK  123  A    between atoms: _296  and  _297
REMARK  124  A    between atoms: _300  and  _302
REMARK  125  A    between atoms: _302  and  _303
REMARK  126  A    between atoms: _302  and  _305
REMARK  127  A    between atoms: _305  and  _306
REMARK  128  A    between atoms: _309  and  _311
REMARK  129  A    between atoms: _311  and  _312
REMARK  130  A    between atoms: _311  and  _314
REMARK  131  A    between atoms: _314  and  _315
REMARK  132  A    between atoms: _318  and  _320
REMARK  133  A    between atoms: _320  and  _321
REMARK  134  A    between atoms: _323  and  _325
REMARK  135  A    between atoms: _325  and  _326
REMARK  136  A    between atoms: _329  and  _331
REMARK  137  A    between atoms: _331  and  _332
REMARK  138  A    between atoms: _331  and  _334
REMARK  139  A    between atoms: _334  and  _335
REMARK  140  A    between atoms: _338  and  _340
REMARK  141  A    between atoms: _340  and  _341
REMARK  142  A    between atoms: _340  and  _343
REMARK  143  A    between atoms: _343  and  _344
REMARK  144  A    between atoms: _347  and  _349
REMARK  145  A    between atoms: _349  and  _350
REMARK  146  A    between atoms: _349  and  _352
REMARK  147  A    between atoms: _355  and  _357
REMARK  148  A    between atoms: _357  and  _358
REMARK  149  A    between atoms: _357  and  _360
REMARK  150  A    between atoms: _360  and  _361
REMARK  151  A    between atoms: _364  and  _366
REMARK  152  A    between atoms: _366  and  _367
REMARK  153  A    between atoms: _369  and  _371
REMARK  154  A    between atoms: _371  and  _372
REMARK  155  A    between atoms: _374  and  _376
REMARK  156  A    between atoms: _376  and  _377
REMARK  157  A    between atoms: _376  and  _379
REMARK  158  A    between atoms: _379  and  _380
REMARK  159  A    between atoms: _383  and  _385
REMARK  160  A    between atoms: _385  and  _386
REMARK  161  A    between atoms: _388  and  _390
REMARK  162  A    between atoms: _390  and  _391
REMARK  163  A    between atoms: _393  and  _395
REMARK  164  A    between atoms: _395  and  _396
REMARK  165  A    between atoms: _395  and  _398
REMARK  166  A    between atoms: _398  and  _399
REMARK  167  A    between atoms: _403  and  _404
REMARK  168  A    between atoms: _409  and  _411
REMARK  169  A    between atoms: _411  and  _412
REMARK  170  A    between atoms: _411  and  _414
REMARK  171  A    between atoms: _417  and  _419
REMARK  172  A    between atoms: _419  and  _420
REMARK  173  A    between atoms: _419  and  _422
REMARK  174  A    between atoms: _422  and  _423
REMARK  175  A    between atoms: _428  and  _430
REMARK  176  A    between atoms: _430  and  _431
REMARK  177  A    between atoms: _430  and  _433
REMARK  178  A    between atoms: _433  and  _434
REMARK  179  A    between atoms: _437  and  _439
REMARK  180  A    between atoms: _439  and  _440
REMARK  181  A    between atoms: _439  and  _442
REMARK  182  A    between atoms: _442  and  _443
REMARK                            x       y       z     vdW  Elec       q    Type
REMARK                         _______ _______ _______ _____ _____    ______ ____
ROOT
ATOM      1  CA  LEU A   1       8.572  31.898  16.511  0.00  0.00    +0.133 C 
ENDROOT
BRANCH   1   2
ATOM      2  N   LEU A   1       9.390  33.072  16.204  0.00  0.00    -0.239 NA
ATOM      3  H   LEU A   1      10.145  32.986  15.494  0.00  0.00    +0.142 HD
ENDBRANCH   1   2
BRANCH   1   4
ATOM      4  C   LEU A   1       9.384  30.926  17.377  0.00  0.00    +0.224 C 
ATOM      5  O   LEU A   1      10.500  30.570  17.018  0.00  0.00    -0.287 OA
ENDBRANCH   1   4
BRANCH   1   6
ATOM      6  CB  LEU A   1       8.120  31.220  15.211  0.00  0.00    +0.025 C 
BRANCH   6   7
ATOM      7  CG  LEU A   1       7.412  32.147  14.217  0.00  0.00    +0.002 C 
ATOM      8  CD2 LEU A   1       6.106  32.629  14.797  0.00  0.00    +0.000 C 
ATOM      9  CD1 LEU A   1       7.166  31.452  12.925  0.00  0.00    +0.000 C 
ENDBRANCH   6   7
ENDBRANCH   1   6
TORSDOF 4
REMARK  Name = ../refined-set-2016/7upj/7upj_pocket.pdb
REMARK  182 active torsions:
REMARK  status: ('A' for Active; 'I' for Inactive)
REMARK    1  A    between atoms: _1  and  _3
REMARK    2  A    between atoms: _3  and  _4
REMARK    3  A    between atoms: _3  and  _6
REMARK    4  A    between atoms: _6  and  _7
REMARK    5  A    between atoms: _7  and  _8
REMARK    6  A    between atoms: _8  and  _9
REMARK    7  A    between atoms: _18  and  _20
REMARK    8  A    between atoms: _20  and  _21
REMARK    9  A    between atoms: _20  and  _23
REMARK   10  A    between atoms: _23  and  _24
REMARK   11  A    between atoms: _27  and  _29
REMARK   12  A    between atoms: _29  and  _30
REMARK   13  A    between atoms: _29  and  _32
REMARK   14  A    between atoms: _32  and  _33
REMARK   15  A    between atoms: _36  and  _38
REMARK   16  A    between atoms: _38  and  _39
REMARK   17  A    between atoms: _38  and  _41
REMARK   18  A    between atoms: _41  and  _42
REMARK   19  A    between atoms: _45  and  _47
REMARK   20  A    between atoms: _47  and  _48
REMARK   21  A    between atoms: _47  and  _50
REMARK   22  A    between atoms: _50  and  _51
REMARK   23  A    between atoms: _54  and  _56
REMARK   24  A    between atoms: _56  and  _57
REMARK   25  A    between atoms: _59  and  _61
REMARK   26  A    between atoms: _61  and  _62
REMARK   27  A    between atoms: _65  and  _67
REMARK   28  A    between atoms: _67  and  _68
REMARK   29  A    between atoms: _67  and  _70
REMARK   30  A    between atoms: _70  and  _71
REMARK   31  A    between atoms: _74  and  _76
REMARK   32  A    between atoms: _76  and  _77
REMARK   33  A    between atoms: _76  and  _79
REMARK   34  A    between atoms: _79  and  _80
REMARK   35  A    between atoms: _83  and  _85
REMARK   36  A    between atoms: _85  and  _86
REMARK   37  A    between atoms: _85  and  _88
REMARK   38  A    between atoms: _88  and  _89
REMARK   39  A    between atoms: _92  and  _94
REMARK   40  A    between atoms: _94  and  _95
REMARK   41  A    between atoms: _94  and  _97
REMARK   42  A    between atoms: _100  and  _102
REMARK   43  A    between atoms: _102  and  _103
REMARK   44  A    between atoms: _102  and  _105
REMARK   45  A    between atoms: _105  and  _106
REMARK   46  A    between atoms: _106  and  _107
REMARK   47  A    between atoms: _107  and  _108
REMARK   48  A    between atoms: _108  and  _109
REMARK   49  A    between atoms: _113  and  _115
REMARK   50  A    between atoms: _115  and  _116
REMARK   51  A    between atoms: _115  and  _118
REMARK   52  A    between atoms: _118  and  _119
REMARK   53  A    between atoms: _119  and  _120
REMARK   54  A    between atoms: _122  and  _124
REMARK   55  A    between atoms: _124  and  _125
REMARK   56  A    between atoms: _124  and  _127
REMARK   57  A    between atoms: _127  and  _128
REMARK   58  A    between atoms: _131  and  _133
REMARK   59  A    between atoms: _133  and  _134
REMARK   60  A    between atoms: _136  and  _138
REMARK   61  A    between atoms: _138  and  _139
REMARK   62  A    between atoms: _141  and  _143
REMARK   63  A    between atoms: _143  and  _144
REMARK   64  A    between atoms: _143  and  _146
REMARK   65  A    between atoms: _146  and  _147
REMARK   66  A    between atoms: _150  and  _152
REMARK   67  A    between atoms: _152  and  _153
REMARK   68  A    between atoms: _155  and  _157
REMARK   69  A    between atoms: _157  and  _158
REMARK   70  A    between atoms: _160  and  _162
REMARK   71  A    between atoms: _162  and  _163
REMARK   72  A    between atoms: _162  and  _165
REMARK   73  A    between atoms: _165  and  _166
REMARK   74  A    between atoms: _172  and  _174
REMARK   75  A    between atoms: _174  and  _175
REMARK   76  A    between atoms: _174  and  _177
REMARK   77  A    between atoms: _177  and  _178
REMARK   78  A    between atoms: _181  and  _183
REMARK   79  A    between atoms: _183  and  _184
REMARK   80  A    between atoms: _183  and  _186
REMARK   81  A    between atoms: _186  and  _187
REMARK   82  A    between atoms: _190  and  _192
REMARK   83  A    between atoms: _192  and  _193
REMARK   84  A    between atoms: _192  and  _195
REMARK   85  A    between atoms: _195  and  _196
REMARK   86  A    between atoms: _200  and  _201
REMARK   87  A    between atoms: _206  and  _208
REMARK   88  A    between atoms: _208  and  _209
REMARK   89  A    between atoms: _208  and  _211
REMARK   90  A    between atoms: _214  and  _216
REMARK   91  A    between atoms: _216  and  _217
REMARK   92  A    between atoms: _216  and  _219
REMARK   93  A    between atoms: _219  and  _220
REMARK   94  A    between atoms: _225  and  _227
REMARK   95  A    between atoms: _227  and  _228
REMARK   96  A    between atoms: _227  and  _230
REMARK   97  A    between atoms: _230  and  _231
REMARK   98  A    between atoms: _234  and  _236
REMARK   99  A    between atoms: _236  and  _237
REMARK  100  A    between atoms: _236  and  _239
REMARK  101  A    between atoms: _239  and  _240
REMARK  102  A    between atoms: _243  and  _245
REMARK  103  A    between atoms: _245  and  _246
REMARK  104  A    between atoms: _248  and  _250
REMARK  105  A    between atoms: _250  and  _251
REMARK  106  A    between atoms: _250  and  _253
REMARK  107  A    between atoms: _253  and  _254
REMARK  108  A    between atoms: _254  and  _255
REMARK  109  A    between atoms: _255  and  _256
REMARK  110  A    between atoms: _265  and  _267
REMARK  111  A    between atoms: _267  and  _268
REMARK  112  A    between atoms: _267  and  _270
REMARK  113  A    between atoms: _270  and  _271
REMARK  114  A    between atoms: _271  and  _272
REMARK  115  A    between atoms: _272  and  _273
REMARK  116  A    between atoms: _282  and  _284
REMARK  117  A    between atoms: _284  and  _285
REMARK  118  A    between atoms: _284  and  _287
REMARK  119  A    between atoms: _287  and  _288
REMARK  120  A    between atoms: _291  and  _293
REMARK  121  A    between atoms: _293  and  _294
REMARK  122  A    between atoms: _293  and  _296
REMARK  123  A    between atoms: _296  and  _297
REMARK  124  A    between atoms: _300  and  _302
REMARK  125  A    between atoms: _302  and  _303
REMARK  126  A    between atoms: _302  and  _305
REMARK  127  A    between atoms: _305  and  _306
REMARK  128  A    between atoms: _309  and  _311
REMARK  129  A    between atoms: _311  and  _312
REMARK  130  A    between atoms: _311  and  _314
REMARK  131  A    between atoms: _314  and  _315
REMARK  132  A    between atoms: _318  and  _320
REMARK  133  A    between atoms: _320  and  _321
REMARK  134  A    between atoms: _323  and  _325
REMARK  135  A    between atoms: _325  and  _326
REMARK  136  A    between atoms: _329  and  _331
REMARK  137  A    between atoms: _331  and  _332
REMARK  138  A    between atoms: _331  and  _334
REMARK  139  A    between atoms: _334  and  _335
REMARK  140  A    between atoms: _338  and  _340
REMARK  141  A    between atoms: _340  and  _341
REMARK  142  A    between atoms: _340  and  _343
REMARK  143  A    between atoms: _343  and  _344
REMARK  144  A    between atoms: _347  and  _349
REMARK  145  A    between atoms: _349  and  _350
REMARK  146  A    between atoms: _349  and  _352
REMARK  147  A    between atoms: _355  and  _357
REMARK  148  A    between atoms: _357  and  _358
REMARK  149  A    between atoms: _357  and  _360
REMARK  150  A    between atoms: _360  and  _361
REMARK  151  A    between atoms: _364  and  _366
REMARK  152  A    between atoms: _366  and  _367
REMARK  153  A    between atoms: _369  and  _371
REMARK  154  A    between atoms: _371  and  _372
REMARK  155  A    between atoms: _374  and  _376
REMARK  156  A    between atoms: _376  and  _377
REMARK  157  A    between atoms: _376  and  _379
REMARK  158  A    between atoms: _379  and  _380
REMARK  159  A    between atoms: _383  and  _385
REMARK  160  A    between atoms: _385  and  _386
REMARK  161  A    between atoms: _388  and  _390
REMARK  162  A    between atoms: _390  and  _391
REMARK  163  A    between atoms: _393  and  _395
REMARK  164  A    between atoms: _395  and  _396
REMARK  165  A    between atoms: _395  and  _398
REMARK  166  A    between atoms: _398  and  _399
REMARK  167  A    between atoms: _403  and  _404
REMARK  168  A    between atoms: _409  and  _411
REMARK  169  A    between atoms: _411  and  _412
REMARK  170  A    between atoms: _411  and  _414
REMARK  171  A    between atoms: _417  and  _419
REMARK  172  A    between atoms: _419  and  _420
REMARK  173  A    between atoms: _419  and  _422
REMARK  174  A    between atoms: _422  and  _423
REMARK  175  A    between atoms: _428  and  _430
REMARK  176  A    between atoms: _430  and  _431
REMARK  177  A    between atoms: _430  and  _433
REMARK  178  A    between atoms: _433  and  _434
REMARK  179  A    between atoms: _437  and  _439
REMARK  180  A    between atoms: _439  and  _440
REMARK  181  A    between atoms: _439  and  _442
REMARK  182  A    between atoms: _442  and  _443
REMARK                            x       y       z     vdW  Elec       q    Type
REMARK                         _______ _______ _______ _____ _____    ______ ____
ROOT
ATOM      1  CA  ILE A   5      16.900  29.484  11.941  0.00  0.00    +0.149 C 
ENDROOT
BRANCH   1   3
ATOM      2  C   ASN A   4      18.027  28.236  13.717  0.00  0.00    +0.241 C 
ATOM      3  N   ILE A   5      16.980  28.942  13.291  0.00  0.00    -0.297 N 
ATOM      4  H   ILE A   5      16.191  29.112  13.947  0.00  0.00    +0.150 HD
ATOM      5  O   ASN A   4      19.041  28.072  13.041  0.00  0.00    -0.273 OA
BRANCH   2   6
ATOM      6  CA  ASN A   4      17.945  27.679  15.144  0.00  0.00    +0.158 C 
BRANCH   6   8
ATOM      7  C   VAL A   3      17.542  25.294  14.613  0.00  0.00    +0.241 C 
ATOM      8  N   ASN A   4      18.308  26.249  15.155  0.00  0.00    -0.297 N 
ATOM      9  H   ASN A   4      19.203  25.969  15.606  0.00  0.00    +0.150 HD
ATOM     10  O   VAL A   3      16.409  25.501  14.145  0.00  0.00    -0.273 OA
BRANCH   7  11
ATOM     11  CA  VAL A   3      18.066  23.860  14.714  0.00  0.00    +0.149 C 
BRANCH  11  14
ATOM     12  C   PRO A   2      17.036  21.714  15.272  0.00  0.00    +0.241 C 
ATOM     13  O   PRO A   2      18.084  21.286  15.781  0.00  0.00    -0.273 OA
ATOM     14  N   VAL A   3      16.938  22.931  14.731  0.00  0.00    -0.297 N 
ATOM     15  H   VAL A   3      16.034  23.226  14.310  0.00  0.00    +0.150 HD
BRANCH  12  19
ATOM     16  C   THR A   1      13.956  22.298  15.898  0.00  0.00    +0.244 C 
ATOM     17  O   THR A   1      14.429  22.377  17.051  0.00  0.00    -0.273 OA
ATOM     18  N   PRO A   2      14.536  21.542  14.946  0.00  0.00    -0.272 N 
ATOM     19  CA  PRO A   2      15.794  20.828  15.210  0.00  0.00    +0.152 C 
ATOM     20  CB  PRO A   2      15.878  19.858  14.041  0.00  0.00    +0.031 C 
ATOM     21  CG  PRO A   2      15.190  20.621  12.910  0.00  0.00    +0.024 C 
ATOM     22  CD  PRO A   2      13.970  21.151  13.639  0.00  0.00    +0.094 C 
BRANCH  16  23
ATOM     23  CA  THR A   1      12.643  23.011  15.532  0.00  0.00    +0.172 C 
BRANCH  23  24
ATOM     24  CB  THR A   1      12.954  24.398  14.924  0.00  0.00    +0.135 C 
ATOM     25  CG2 THR A   1      13.599  25.272  15.957  0.00  0.00    +0.034 C 
BRANCH  24  26
ATOM     26  OG1 THR A   1      13.866  24.261  13.828  0.00  0.00    -0.383 OA
ATOM     27  HG1 THR A   1      14.707  23.850  14.150  0.00  0.00    +0.210 HD
ENDBRANCH  24  26
ENDBRANCH  23  24
BRANCH  23  28
ATOM     28  N   THR A   1      11.930  23.125  16.796  0.00  0.00    -0.236 NA
ATOM     29  H   THR A   1      11.997  24.006  17.344  0.00  0.00    +0.142 HD
ENDBRANCH  23  28
ENDBRANCH  16  23
ENDBRANCH  12  19
ENDBRANCH  11  14
BRANCH  11  30
ATOM     30  CB  VAL A   3      19.056  23.516  13.554  0.00  0.00    +0.027 C 
ATOM     31  CG2 VAL A   3      20.249  24.445  13.571  0.00  0.00    +0.002 C 
ATOM     32  CG1 VAL A   3      18.362  23.549  12.203  0.00  0.00    +0.002 C 
ENDBRANCH  11  30
ENDBRANCH   7  11
ENDBRANCH   6   8
BRANCH   6  33
ATOM     33  CB  ASN A   4      18.849  28.509  16.092  0.00  0.00    +0.114 C 
BRANCH  33  34
ATOM     34  CG  ASN A   4      18.574  28.246  17.595  0.00  0.00    +0.222 C 
ATOM     35  ND2 ASN A   4      19.603  28.427  18.419  0.00  0.00    -0.329 N 
ATOM     36 HD21 ASN A   4      19.479  28.294  19.443  0.00  0.00    +0.145 HD
ATOM     37 HD22 ASN A   4      20.531  28.702  18.039  0.00  0.00    +0.145 HD
ATOM     38  OD1 ASN A   4      17.453  27.919  18.003  0.00  0.00    -0.275 OA
ENDBRANCH  33  34
ENDBRANCH   6  33
ENDBRANCH   2   6
ENDBRANCH   1   3
BRANCH   1  39
ATOM     39  C   ILE A   5      16.594  30.988  11.860  0.00  0.00    +0.241 C 
ATOM     40  O   ILE A   5      15.688  31.468  12.515  0.00  0.00    -0.273 OA
ATOM     41  N   ILE A   6      17.372  31.721  11.065  0.00  0.00    -0.297 N 
ATOM     42  H   ILE A   6      18.170  31.254  10.588  0.00  0.00    +0.150 HD
BRANCH  41  43
ATOM     43  CA  ILE A   6      17.161  33.152  10.828  0.00  0.00    +0.149 C 
BRANCH  43  44
ATOM     44  C   ILE A   6      16.511  33.249   9.428  0.00  0.00    +0.241 C 
ATOM     45  N   GLY A   7      15.253  33.679   9.373  0.00  0.00    -0.295 N 
ATOM     46  H   GLY A   7      14.767  33.944  10.253  0.00  0.00    +0.150 HD
ATOM     47  O   ILE A   6      17.148  32.931   8.426  0.00  0.00    -0.273 OA
BRANCH  45  48
ATOM     48  CA  GLY A   7      14.542  33.787   8.106  0.00  0.00    +0.176 C 
BRANCH  48  49
ATOM     49  C   GLY A   7      14.566  35.150   7.399  0.00  0.00    +0.243 C 
ATOM     50  O   GLY A   7      15.207  36.086   7.876  0.00  0.00    -0.273 OA
ATOM     51  N   ARG A   8      13.832  35.270   6.295  0.00  0.00    -0.298 N 
ATOM     52  H   ARG A   8      13.261  34.456   5.989  0.00  0.00    +0.150 HD
BRANCH  51  53
ATOM     53  CA  ARG A   8      13.790  36.493   5.491  0.00  0.00    +0.137 C 
BRANCH  53  54
ATOM     54  C   ARG A   8      13.353  37.798   6.176  0.00  0.00    +0.227 C 
ATOM     55  O   ARG A   8      13.865  38.864   5.852  0.00  0.00    -0.286 OA
ENDBRANCH  53  54
BRANCH  53  56
ATOM     56  CB  ARG A   8      12.977  36.253   4.216  0.00  0.00    +0.031 C 
BRANCH  56  57
ATOM     57  CG  ARG A   8      13.604  35.218   3.263  0.00  0.00    +0.045 C 
BRANCH  57  58
ATOM     58  CD  ARG A   8      12.628  34.753   2.180  0.00  0.00    +0.174 C 
BRANCH  58  59
ATOM     59  NE  ARG A   8      11.872  35.889   1.720  0.00  0.00    -0.265 N 
ATOM     60  CZ  ARG A   8      10.552  36.033   1.819  0.00  0.00    +0.342 C 
ATOM     61  NH2 ARG A   8       9.786  35.080   2.311  0.00  0.00    -0.292 N 
ATOM     62 HH21 ARG A   8      10.210  34.187   2.634  0.00  0.00    +0.255 HD
ATOM     63 HH22 ARG A   8       8.758  35.221   2.376  0.00  0.00    +0.255 HD
ATOM     64  NH1 ARG A   8      10.036  37.246   1.667  0.00  0.00    -0.292 N 
ATOM     65 HH11 ARG A   8       9.008  37.387   1.739  0.00  0.00    +0.255 HD
ATOM     66 HH12 ARG A   8      10.659  38.056   1.475  0.00  0.00    +0.255 HD
ATOM     67  HE  ARG A   8      12.402  36.663   1.272  0.00  0.00    +0.259 HD
ENDBRANCH  58  59
ENDBRANCH  57  58
ENDBRANCH  56  57
ENDBRANCH  53  56
ENDBRANCH  51  53
ENDBRANCH  48  49
ENDBRANCH  45  48
ENDBRANCH  43  44
BRANCH  43  68
ATOM     68  CB  ILE A   6      18.491  33.932  10.812  0.00  0.00    +0.027 C 
ATOM     69  CG2 ILE A   6      18.264  35.371  10.352  0.00  0.00    +0.002 C 
BRANCH  68  70
ATOM     70  CG1 ILE A   6      19.192  33.878  12.177  0.00  0.00    +0.002 C 
ATOM     71  CD1 ILE A   6      18.473  34.568  13.301  0.00  0.00    +0.000 C 
ENDBRANCH  68  70
ENDBRANCH  43  68
ENDBRANCH  41  43
ENDBRANCH   1  39
BRANCH   1  72
ATOM     72  CB  ILE A   5      15.798  28.714  11.160  0.00  0.00    +0.027 C 
ATOM     73  CG2 ILE A   5      15.583  29.282   9.789  0.00  0.00    +0.002 C 
BRANCH  72  74
ATOM     74  CG1 ILE A   5      16.192  27.254  11.016  0.00  0.00    +0.002 C 
ATOM     75  CD1 ILE A   5      15.069  26.430  10.572  0.00  0.00    +0.000 C 
ENDBRANCH  72  74
ENDBRANCH   1  72
TORSDOF 28
REMARK  Name = ../refined-set-2016/7upj/7upj_pocket.pdb
REMARK  182 active torsions:
REMARK  status: ('A' for Active; 'I' for Inactive)
REMARK    1  A    between atoms: _1  and  _3
REMARK    2  A    between atoms: _3  and  _4
REMARK    3  A    between atoms: _3  and  _6
REMARK    4  A    between atoms: _6  and  _7
REMARK    5  A    between atoms: _7  and  _8
REMARK    6  A    between atoms: _8  and  _9
REMARK    7  A    between atoms: _18  and  _20
REMARK    8  A    between atoms: _20  and  _21
REMARK    9  A    between atoms: _20  and  _23
REMARK   10  A    between atoms: _23  and  _24
REMARK   11  A    between atoms: _27  and  _29
REMARK   12  A    between atoms: _29  and  _30
REMARK   13  A    between atoms: _29  and  _32
REMARK   14  A    between atoms: _32  and  _33
REMARK   15  A    between atoms: _36  and  _38
REMARK   16  A    between atoms: _38  and  _39
REMARK   17  A    between atoms: _38  and  _41
REMARK   18  A    between atoms: _41  and  _42
REMARK   19  A    between atoms: _45  and  _47
REMARK   20  A    between atoms: _47  and  _48
REMARK   21  A    between atoms: _47  and  _50
REMARK   22  A    between atoms: _50  and  _51
REMARK   23  A    between atoms: _54  and  _56
REMARK   24  A    between atoms: _56  and  _57
REMARK   25  A    between atoms: _59  and  _61
REMARK   26  A    between atoms: _61  and  _62
REMARK   27  A    between atoms: _65  and  _67
REMARK   28  A    between atoms: _67  and  _68
REMARK   29  A    between atoms: _67  and  _70
REMARK   30  A    between atoms: _70  and  _71
REMARK   31  A    between atoms: _74  and  _76
REMARK   32  A    between atoms: _76  and  _77
REMARK   33  A    between atoms: _76  and  _79
REMARK   34  A    between atoms: _79  and  _80
REMARK   35  A    between atoms: _83  and  _85
REMARK   36  A    between atoms: _85  and  _86
REMARK   37  A    between atoms: _85  and  _88
REMARK   38  A    between atoms: _88  and  _89
REMARK   39  A    between atoms: _92  and  _94
REMARK   40  A    between atoms: _94  and  _95
REMARK   41  A    between atoms: _94  and  _97
REMARK   42  A    between atoms: _100  and  _102
REMARK   43  A    between atoms: _102  and  _103
REMARK   44  A    between atoms: _102  and  _105
REMARK   45  A    between atoms: _105  and  _106
REMARK   46  A    between atoms: _106  and  _107
REMARK   47  A    between atoms: _107  and  _108
REMARK   48  A    between atoms: _108  and  _109
REMARK   49  A    between atoms: _113  and  _115
REMARK   50  A    between atoms: _115  and  _116
REMARK   51  A    between atoms: _115  and  _118
REMARK   52  A    between atoms: _118  and  _119
REMARK   53  A    between atoms: _119  and  _120
REMARK   54  A    between atoms: _122  and  _124
REMARK   55  A    between atoms: _124  and  _125
REMARK   56  A    between atoms: _124  and  _127
REMARK   57  A    between atoms: _127  and  _128
REMARK   58  A    between atoms: _131  and  _133
REMARK   59  A    between atoms: _133  and  _134
REMARK   60  A    between atoms: _136  and  _138
REMARK   61  A    between atoms: _138  and  _139
REMARK   62  A    between atoms: _141  and  _143
REMARK   63  A    between atoms: _143  and  _144
REMARK   64  A    between atoms: _143  and  _146
REMARK   65  A    between atoms: _146  and  _147
REMARK   66  A    between atoms: _150  and  _152
REMARK   67  A    between atoms: _152  and  _153
REMARK   68  A    between atoms: _155  and  _157
REMARK   69  A    between atoms: _157  and  _158
REMARK   70  A    between atoms: _160  and  _162
REMARK   71  A    between atoms: _162  and  _163
REMARK   72  A    between atoms: _162  and  _165
REMARK   73  A    between atoms: _165  and  _166
REMARK   74  A    between atoms: _172  and  _174
REMARK   75  A    between atoms: _174  and  _175
REMARK   76  A    between atoms: _174  and  _177
REMARK   77  A    between atoms: _177  and  _178
REMARK   78  A    between atoms: _181  and  _183
REMARK   79  A    between atoms: _183  and  _184
REMARK   80  A    between atoms: _183  and  _186
REMARK   81  A    between atoms: _186  and  _187
REMARK   82  A    between atoms: _190  and  _192
REMARK   83  A    between atoms: _192  and  _193
REMARK   84  A    between atoms: _192  and  _195
REMARK   85  A    between atoms: _195  and  _196
REMARK   86  A    between atoms: _200  and  _201
REMARK   87  A    between atoms: _206  and  _208
REMARK   88  A    between atoms: _208  and  _209
REMARK   89  A    between atoms: _208  and  _211
REMARK   90  A    between atoms: _214  and  _216
REMARK   91  A    between atoms: _216  and  _217
REMARK   92  A    between atoms: _216  and  _219
REMARK   93  A    between atoms: _219  and  _220
REMARK   94  A    between atoms: _225  and  _227
REMARK   95  A    between atoms: _227  and  _228
REMARK   96  A    between atoms: _227  and  _230
REMARK   97  A    between atoms: _230  and  _231
REMARK   98  A    between atoms: _234  and  _236
REMARK   99  A    between atoms: _236  and  _237
REMARK  100  A    between atoms: _236  and  _239
REMARK  101  A    between atoms: _239  and  _240
REMARK  102  A    between atoms: _243  and  _245
REMARK  103  A    between atoms: _245  and  _246
REMARK  104  A    between atoms: _248  and  _250
REMARK  105  A    between atoms: _250  and  _251
REMARK  106  A    between atoms: _250  and  _253
REMARK  107  A    between atoms: _253  and  _254
REMARK  108  A    between atoms: _254  and  _255
REMARK  109  A    between atoms: _255  and  _256
REMARK  110  A    between atoms: _265  and  _267
REMARK  111  A    between atoms: _267  and  _268
REMARK  112  A    between atoms: _267  and  _270
REMARK  113  A    between atoms: _270  and  _271
REMARK  114  A    between atoms: _271  and  _272
REMARK  115  A    between atoms: _272  and  _273
REMARK  116  A    between atoms: _282  and  _284
REMARK  117  A    between atoms: _284  and  _285
REMARK  118  A    between atoms: _284  and  _287
REMARK  119  A    between atoms: _287  and  _288
REMARK  120  A    between atoms: _291  and  _293
REMARK  121  A    between atoms: _293  and  _294
REMARK  122  A    between atoms: _293  and  _296
REMARK  123  A    between atoms: _296  and  _297
REMARK  124  A    between atoms: _300  and  _302
REMARK  125  A    between atoms: _302  and  _303
REMARK  126  A    between atoms: _302  and  _305
REMARK  127  A    between atoms: _305  and  _306
REMARK  128  A    between atoms: _309  and  _311
REMARK  129  A    between atoms: _311  and  _312
REMARK  130  A    between atoms: _311  and  _314
REMARK  131  A    between atoms: _314  and  _315
REMARK  132  A    between atoms: _318  and  _320
REMARK  133  A    between atoms: _320  and  _321
REMARK  134  A    between atoms: _323  and  _325
REMARK  135  A    between atoms: _325  and  _326
REMARK  136  A    between atoms: _329  and  _331
REMARK  137  A    between atoms: _331  and  _332
REMARK  138  A    between atoms: _331  and  _334
REMARK  139  A    between atoms: _334  and  _335
REMARK  140  A    between atoms: _338  and  _340
REMARK  141  A    between atoms: _340  and  _341
REMARK  142  A    between atoms: _340  and  _343
REMARK  143  A    between atoms: _343  and  _344
REMARK  144  A    between atoms: _347  and  _349
REMARK  145  A    between atoms: _349  and  _350
REMARK  146  A    between atoms: _349  and  _352
REMARK  147  A    between atoms: _355  and  _357
REMARK  148  A    between atoms: _357  and  _358
REMARK  149  A    between atoms: _357  and  _360
REMARK  150  A    between atoms: _360  and  _361
REMARK  151  A    between atoms: _364  and  _366
REMARK  152  A    between atoms: _366  and  _367
REMARK  153  A    between atoms: _369  and  _371
REMARK  154  A    between atoms: _371  and  _372
REMARK  155  A    between atoms: _374  and  _376
REMARK  156  A    between atoms: _376  and  _377
REMARK  157  A    between atoms: _376  and  _379
REMARK  158  A    between atoms: _379  and  _380
REMARK  159  A    between atoms: _383  and  _385
REMARK  160  A    between atoms: _385  and  _386
REMARK  161  A    between atoms: _388  and  _390
REMARK  162  A    between atoms: _390  and  _391
REMARK  163  A    between atoms: _393  and  _395
REMARK  164  A    between atoms: _395  and  _396
REMARK  165  A    between atoms: _395  and  _398
REMARK  166  A    between atoms: _398  and  _399
REMARK  167  A    between atoms: _403  and  _404
REMARK  168  A    between atoms: _409  and  _411
REMARK  169  A    between atoms: _411  and  _412
REMARK  170  A    between atoms: _411  and  _414
REMARK  171  A    between atoms: _417  and  _419
REMARK  172  A    between atoms: _419  and  _420
REMARK  173  A    between atoms: _419  and  _422
REMARK  174  A    between atoms: _422  and  _423
REMARK  175  A    between atoms: _428  and  _430
REMARK  176  A    between atoms: _430  and  _431
REMARK  177  A    between atoms: _430  and  _433
REMARK  178  A    between atoms: _433  and  _434
REMARK  179  A    between atoms: _437  and  _439
REMARK  180  A    between atoms: _439  and  _440
REMARK  181  A    between atoms: _439  and  _442
REMARK  182  A    between atoms: _442  and  _443
REMARK                            x       y       z     vdW  Elec       q    Type
REMARK                         _______ _______ _______ _____ _____    ______ ____
ROOT
ATOM      1  NE  ARG A   1       7.164  31.650   0.632  0.00  0.00    -0.265 N 
ATOM      2  HE  ARG A   1       7.425  32.265   1.429  0.00  0.00    +0.259 HD
ATOM      3  CZ  ARG A   1       6.167  30.785   0.811  0.00  0.00    +0.342 C 
ATOM      4  NH2 ARG A   1       5.480  30.781   1.946  0.00  0.00    -0.292 N 
ATOM      5 HH21 ARG A   1       5.719  31.455   2.701  0.00  0.00    +0.255 HD
ATOM      6 HH22 ARG A   1       4.702  30.104   2.081  0.00  0.00    +0.255 HD
ATOM      7  NH1 ARG A   1       5.808  29.968  -0.175  0.00  0.00    -0.292 N 
ATOM      8 HH11 ARG A   1       5.029  29.293  -0.034  0.00  0.00    +0.255 HD
ATOM      9 HH12 ARG A   1       6.306  30.004  -1.087  0.00  0.00    +0.255 HD
ENDROOT
BRANCH   1  10
ATOM     10  CD  ARG A   1       7.914  31.789  -0.613  0.00  0.00    +0.174 C 
BRANCH  10  11
ATOM     11  CG  ARG A   1       8.765  33.025  -0.580  0.00  0.00    +0.045 C 
BRANCH  11  12
ATOM     12  CB  ARG A   1       9.391  33.338  -1.902  0.00  0.00    +0.029 C 
BRANCH  12  13
ATOM     13  CA  ARG A   1      10.395  34.497  -1.836  0.00  0.00    +0.133 C 
BRANCH  13  14
ATOM     14  N   ARG A   1       9.720  35.793  -1.644  0.00  0.00    -0.239 NA
ATOM     15  H   ARG A   1       8.682  35.826  -1.592  0.00  0.00    +0.142 HD
ENDBRANCH  13  14
BRANCH  13  16
ATOM     16  C   ARG A   1      11.315  34.445  -3.054  0.00  0.00    +0.224 C 
ATOM     17  O   ARG A   1      10.913  34.790  -4.159  0.00  0.00    -0.287 OA
ENDBRANCH  13  16
ENDBRANCH  12  13
ENDBRANCH  11  12
ENDBRANCH  10  11
ENDBRANCH   1  10
TORSDOF 6
REMARK  Name = ../refined-set-2016/7upj/7upj_pocket.pdb
REMARK  182 active torsions:
REMARK  status: ('A' for Active; 'I' for Inactive)
REMARK    1  A    between atoms: _1  and  _3
REMARK    2  A    between atoms: _3  and  _4
REMARK    3  A    between atoms: _3  and  _6
REMARK    4  A    between atoms: _6  and  _7
REMARK    5  A    between atoms: _7  and  _8
REMARK    6  A    between atoms: _8  and  _9
REMARK    7  A    between atoms: _18  and  _20
REMARK    8  A    between atoms: _20  and  _21
REMARK    9  A    between atoms: _20  and  _23
REMARK   10  A    between atoms: _23  and  _24
REMARK   11  A    between atoms: _27  and  _29
REMARK   12  A    between atoms: _29  and  _30
REMARK   13  A    between atoms: _29  and  _32
REMARK   14  A    between atoms: _32  and  _33
REMARK   15  A    between atoms: _36  and  _38
REMARK   16  A    between atoms: _38  and  _39
REMARK   17  A    between atoms: _38  and  _41
REMARK   18  A    between atoms: _41  and  _42
REMARK   19  A    between atoms: _45  and  _47
REMARK   20  A    between atoms: _47  and  _48
REMARK   21  A    between atoms: _47  and  _50
REMARK   22  A    between atoms: _50  and  _51
REMARK   23  A    between atoms: _54  and  _56
REMARK   24  A    between atoms: _56  and  _57
REMARK   25  A    between atoms: _59  and  _61
REMARK   26  A    between atoms: _61  and  _62
REMARK   27  A    between atoms: _65  and  _67
REMARK   28  A    between atoms: _67  and  _68
REMARK   29  A    between atoms: _67  and  _70
REMARK   30  A    between atoms: _70  and  _71
REMARK   31  A    between atoms: _74  and  _76
REMARK   32  A    between atoms: _76  and  _77
REMARK   33  A    between atoms: _76  and  _79
REMARK   34  A    between atoms: _79  and  _80
REMARK   35  A    between atoms: _83  and  _85
REMARK   36  A    between atoms: _85  and  _86
REMARK   37  A    between atoms: _85  and  _88
REMARK   38  A    between atoms: _88  and  _89
REMARK   39  A    between atoms: _92  and  _94
REMARK   40  A    between atoms: _94  and  _95
REMARK   41  A    between atoms: _94  and  _97
REMARK   42  A    between atoms: _100  and  _102
REMARK   43  A    between atoms: _102  and  _103
REMARK   44  A    between atoms: _102  and  _105
REMARK   45  A    between atoms: _105  and  _106
REMARK   46  A    between atoms: _106  and  _107
REMARK   47  A    between atoms: _107  and  _108
REMARK   48  A    between atoms: _108  and  _109
REMARK   49  A    between atoms: _113  and  _115
REMARK   50  A    between atoms: _115  and  _116
REMARK   51  A    between atoms: _115  and  _118
REMARK   52  A    between atoms: _118  and  _119
REMARK   53  A    between atoms: _119  and  _120
REMARK   54  A    between atoms: _122  and  _124
REMARK   55  A    between atoms: _124  and  _125
REMARK   56  A    between atoms: _124  and  _127
REMARK   57  A    between atoms: _127  and  _128
REMARK   58  A    between atoms: _131  and  _133
REMARK   59  A    between atoms: _133  and  _134
REMARK   60  A    between atoms: _136  and  _138
REMARK   61  A    between atoms: _138  and  _139
REMARK   62  A    between atoms: _141  and  _143
REMARK   63  A    between atoms: _143  and  _144
REMARK   64  A    between atoms: _143  and  _146
REMARK   65  A    between atoms: _146  and  _147
REMARK   66  A    between atoms: _150  and  _152
REMARK   67  A    between atoms: _152  and  _153
REMARK   68  A    between atoms: _155  and  _157
REMARK   69  A    between atoms: _157  and  _158
REMARK   70  A    between atoms: _160  and  _162
REMARK   71  A    between atoms: _162  and  _163
REMARK   72  A    between atoms: _162  and  _165
REMARK   73  A    between atoms: _165  and  _166
REMARK   74  A    between atoms: _172  and  _174
REMARK   75  A    between atoms: _174  and  _175
REMARK   76  A    between atoms: _174  and  _177
REMARK   77  A    between atoms: _177  and  _178
REMARK   78  A    between atoms: _181  and  _183
REMARK   79  A    between atoms: _183  and  _184
REMARK   80  A    between atoms: _183  and  _186
REMARK   81  A    between atoms: _186  and  _187
REMARK   82  A    between atoms: _190  and  _192
REMARK   83  A    between atoms: _192  and  _193
REMARK   84  A    between atoms: _192  and  _195
REMARK   85  A    between atoms: _195  and  _196
REMARK   86  A    between atoms: _200  and  _201
REMARK   87  A    between atoms: _206  and  _208
REMARK   88  A    between atoms: _208  and  _209
REMARK   89  A    between atoms: _208  and  _211
REMARK   90  A    between atoms: _214  and  _216
REMARK   91  A    between atoms: _216  and  _217
REMARK   92  A    between atoms: _216  and  _219
REMARK   93  A    between atoms: _219  and  _220
REMARK   94  A    between atoms: _225  and  _227
REMARK   95  A    between atoms: _227  and  _228
REMARK   96  A    between atoms: _227  and  _230
REMARK   97  A    between atoms: _230  and  _231
REMARK   98  A    between atoms: _234  and  _236
REMARK   99  A    between atoms: _236  and  _237
REMARK  100  A    between atoms: _236  and  _239
REMARK  101  A    between atoms: _239  and  _240
REMARK  102  A    between atoms: _243  and  _245
REMARK  103  A    between atoms: _245  and  _246
REMARK  104  A    between atoms: _248  and  _250
REMARK  105  A    between atoms: _250  and  _251
REMARK  106  A    between atoms: _250  and  _253
REMARK  107  A    between atoms: _253  and  _254
REMARK  108  A    between atoms: _254  and  _255
REMARK  109  A    between atoms: _255  and  _256
REMARK  110  A    between atoms: _265  and  _267
REMARK  111  A    between atoms: _267  and  _268
REMARK  112  A    between atoms: _267  and  _270
REMARK  113  A    between atoms: _270  and  _271
REMARK  114  A    between atoms: _271  and  _272
REMARK  115  A    between atoms: _272  and  _273
REMARK  116  A    between atoms: _282  and  _284
REMARK  117  A    between atoms: _284  and  _285
REMARK  118  A    between atoms: _284  and  _287
REMARK  119  A    between atoms: _287  and  _288
REMARK  120  A    between atoms: _291  and  _293
REMARK  121  A    between atoms: _293  and  _294
REMARK  122  A    between atoms: _293  and  _296
REMARK  123  A    between atoms: _296  and  _297
REMARK  124  A    between atoms: _300  and  _302
REMARK  125  A    between atoms: _302  and  _303
REMARK  126  A    between atoms: _302  and  _305
REMARK  127  A    between atoms: _305  and  _306
REMARK  128  A    between atoms: _309  and  _311
REMARK  129  A    between atoms: _311  and  _312
REMARK  130  A    between atoms: _311  and  _314
REMARK  131  A    between atoms: _314  and  _315
REMARK  132  A    between atoms: _318  and  _320
REMARK  133  A    between atoms: _320  and  _321
REMARK  134  A    between atoms: _323  and  _325
REMARK  135  A    between atoms: _325  and  _326
REMARK  136  A    between atoms: _329  and  _331
REMARK  137  A    between atoms: _331  and  _332
REMARK  138  A    between atoms: _331  and  _334
REMARK  139  A    between atoms: _334  and  _335
REMARK  140  A    between atoms: _338  and  _340
REMARK  141  A    between atoms: _340  and  _341
REMARK  142  A    between atoms: _340  and  _343
REMARK  143  A    between atoms: _343  and  _344
REMARK  144  A    between atoms: _347  and  _349
REMARK  145  A    between atoms: _349  and  _350
REMARK  146  A    between atoms: _349  and  _352
REMARK  147  A    between atoms: _355  and  _357
REMARK  148  A    between atoms: _357  and  _358
REMARK  149  A    between atoms: _357  and  _360
REMARK  150  A    between atoms: _360  and  _361
REMARK  151  A    between atoms: _364  and  _366
REMARK  152  A    between atoms: _366  and  _367
REMARK  153  A    between atoms: _369  and  _371
REMARK  154  A    between atoms: _371  and  _372
REMARK  155  A    between atoms: _374  and  _376
REMARK  156  A    between atoms: _376  and  _377
REMARK  157  A    between atoms: _376  and  _379
REMARK  158  A    between atoms: _379  and  _380
REMARK  159  A    between atoms: _383  and  _385
REMARK  160  A    between atoms: _385  and  _386
REMARK  161  A    between atoms: _388  and  _390
REMARK  162  A    between atoms: _390  and  _391
REMARK  163  A    between atoms: _393  and  _395
REMARK  164  A    between atoms: _395  and  _396
REMARK  165  A    between atoms: _395  and  _398
REMARK  166  A    between atoms: _398  and  _399
REMARK  167  A    between atoms: _403  and  _404
REMARK  168  A    between atoms: _409  and  _411
REMARK  169  A    between atoms: _411  and  _412
REMARK  170  A    between atoms: _411  and  _414
REMARK  171  A    between atoms: _417  and  _419
REMARK  172  A    between atoms: _419  and  _420
REMARK  173  A    between atoms: _419  and  _422
REMARK  174  A    between atoms: _422  and  _423
REMARK  175  A    between atoms: _428  and  _430
REMARK  176  A    between atoms: _430  and  _431
REMARK  177  A    between atoms: _430  and  _433
REMARK  178  A    between atoms: _433  and  _434
REMARK  179  A    between atoms: _437  and  _439
REMARK  180  A    between atoms: _439  and  _440
REMARK  181  A    between atoms: _439  and  _442
REMARK  182  A    between atoms: _442  and  _443
REMARK                            x       y       z     vdW  Elec       q    Type
REMARK                         _______ _______ _______ _____ _____    ______ ____
ROOT
ATOM      1  CA  THR A   4      20.930  28.417   1.727  0.00  0.00    +0.176 C 
ENDROOT
BRANCH   1   3
ATOM      2  C   ASP A   3      18.961  27.491   0.603  0.00  0.00    +0.241 C 
ATOM      3  N   THR A   4      19.574  28.513   1.193  0.00  0.00    -0.295 N 
ATOM      4  H   THR A   4      19.067  29.417   1.278  0.00  0.00    +0.150 HD
ATOM      5  O   ASP A   3      19.481  26.384   0.542  0.00  0.00    -0.273 OA
BRANCH   2   6
ATOM      6  CA  ASP A   3      17.507  27.742   0.069  0.00  0.00    +0.160 C 
BRANCH   6   9
ATOM      7  C   LEU A   2      16.938  29.028  -1.985  0.00  0.00    +0.241 C 
ATOM      8  O   LEU A   2      16.548  30.004  -1.343  0.00  0.00    -0.273 OA
ATOM      9  N   ASP A   3      17.437  27.932  -1.399  0.00  0.00    -0.297 N 
ATOM     10  H   ASP A   3      17.796  27.170  -2.009  0.00  0.00    +0.150 HD
BRANCH   7  11
ATOM     11  CA  LEU A   2      16.863  29.032  -3.540  0.00  0.00    +0.149 C 
BRANCH  11  14
ATOM     12  C   LEU A   1      14.700  27.951  -3.899  0.00  0.00    +0.238 C 
ATOM     13  O   LEU A   1      15.186  26.825  -3.773  0.00  0.00    -0.274 OA
ATOM     14  N   LEU A   2      15.439  29.063  -3.870  0.00  0.00    -0.297 N 
ATOM     15  H   LEU A   2      14.990  29.975  -4.088  0.00  0.00    +0.150 HD
BRANCH  12  16
ATOM     16  CA  LEU A   1      13.192  28.103  -4.183  0.00  0.00    +0.145 C 
BRANCH  16  17
ATOM     17  N   LEU A   1      12.739  27.170  -5.194  0.00  0.00    -0.238 NA
ATOM     18  H   LEU A   1      12.541  26.188  -4.915  0.00  0.00    +0.142 HD
ENDBRANCH  16  17
BRANCH  16  19
ATOM     19  CB  LEU A   1      12.405  27.802  -2.912  0.00  0.00    +0.026 C 
BRANCH  19  20
ATOM     20  CG  LEU A   1      12.478  28.633  -1.640  0.00  0.00    +0.002 C 
ATOM     21  CD2 LEU A   1      11.860  27.820  -0.484  0.00  0.00    +0.000 C 
ATOM     22  CD1 LEU A   1      11.681  29.902  -1.847  0.00  0.00    +0.000 C 
ENDBRANCH  19  20
ENDBRANCH  16  19
ENDBRANCH  12  16
ENDBRANCH  11  14
BRANCH  11  23
ATOM     23  CB  LEU A   2      17.576  30.264  -4.120  0.00  0.00    +0.029 C 
BRANCH  23  24
ATOM     24  CG  LEU A   2      17.554  30.508  -5.645  0.00  0.00    +0.002 C 
ATOM     25  CD2 LEU A   2      18.482  31.668  -6.030  0.00  0.00    +0.000 C 
ATOM     26  CD1 LEU A   2      17.965  29.269  -6.398  0.00  0.00    +0.000 C 
ENDBRANCH  23  24
ENDBRANCH  11  23
ENDBRANCH   7  11
ENDBRANCH   6   9
BRANCH   6  27
ATOM     27  CB  ASP A   3      16.530  26.584   0.418  0.00  0.00    +0.143 C 
BRANCH  27  28
ATOM     28  CG  ASP A   3      16.338  26.334   1.927  0.00  0.00    +0.367 C 
ATOM     29  OD2 ASP A   3      17.210  26.640   2.731  0.00  0.00    -0.246 OA
ATOM     30  OD1 ASP A   3      15.308  25.778   2.329  0.00  0.00    -0.246 OA
ENDBRANCH  27  28
ENDBRANCH   6  27
ENDBRANCH   2   6
ENDBRANCH   1   3
BRANCH   1  31
ATOM     31  C   THR A   4      21.084  27.488   2.931  0.00  0.00    +0.243 C 
ATOM     32  N   GLY A   5      19.982  27.197   3.623  0.00  0.00    -0.295 N 
ATOM     33  H   GLY A   5      19.072  27.597   3.316  0.00  0.00    +0.150 HD
ATOM     34  O   THR A   4      22.209  27.093   3.263  0.00  0.00    -0.273 OA
BRANCH  32  35
ATOM     35  CA  GLY A   5      20.016  26.334   4.799  0.00  0.00    +0.176 C 
BRANCH  35  36
ATOM     36  C   GLY A   5      19.970  24.830   4.549  0.00  0.00    +0.243 C 
ATOM     37  O   GLY A   5      20.159  24.026   5.464  0.00  0.00    -0.273 OA
ATOM     38  N   ALA A   6      19.719  24.444   3.305  0.00  0.00    -0.297 N 
ATOM     39  H   ALA A   6      19.573  25.169   2.574  0.00  0.00    +0.150 HD
BRANCH  38  40
ATOM     40  CA  ALA A   6      19.641  23.036   2.926  0.00  0.00    +0.149 C 
ATOM     41  CB  ALA A   6      18.498  22.835   1.933  0.00  0.00    +0.031 C 
BRANCH  40  42
ATOM     42  C   ALA A   6      20.952  22.511   2.330  0.00  0.00    +0.241 C 
ATOM     43  N   ASP A   7      21.343  21.294   2.695  0.00  0.00    -0.297 N 
ATOM     44  H   ASP A   7      20.774  20.731   3.360  0.00  0.00    +0.150 HD
ATOM     45  O   ALA A   6      21.587  23.185   1.523  0.00  0.00    -0.273 OA
BRANCH  43  46
ATOM     46  CA  ASP A   7      22.574  20.768   2.150  0.00  0.00    +0.160 C 
BRANCH  46  47
ATOM     47  C   ASP A   7      22.321  20.103   0.796  0.00  0.00    +0.241 C 
ATOM     48  N   ASP A   8      21.119  19.546   0.626  0.00  0.00    -0.298 N 
ATOM     49  H   ASP A   8      20.418  19.649   1.387  0.00  0.00    +0.150 HD
ATOM     50  O   ASP A   7      23.174  20.152  -0.088  0.00  0.00    -0.273 OA
BRANCH  48  51
ATOM     51  CA  ASP A   8      20.733  18.799  -0.572  0.00  0.00    +0.148 C 
BRANCH  51  52
ATOM     52  C   ASP A   8      19.613  19.458  -1.375  0.00  0.00    +0.227 C 
ATOM     53  O   ASP A   8      18.912  20.322  -0.874  0.00  0.00    -0.286 OA
ENDBRANCH  51  52
BRANCH  51  54
ATOM     54  CB  ASP A   8      20.277  17.372  -0.155  0.00  0.00    +0.142 C 
BRANCH  54  55
ATOM     55  CG  ASP A   8      21.328  16.604   0.687  0.00  0.00    +0.367 C 
ATOM     56  OD2 ASP A   8      20.975  16.108   1.780  0.00  0.00    -0.246 OA
ATOM     57  OD1 ASP A   8      22.502  16.490   0.267  0.00  0.00    -0.246 OA
ENDBRANCH  54  55
ENDBRANCH  51  54
ENDBRANCH  48  51
ENDBRANCH  46  47
BRANCH  46  58
ATOM     58  CB  ASP A   7      23.186  19.743   3.080  0.00  0.00    +0.143 C 
BRANCH  58  59
ATOM     59  CG  ASP A   7      23.275  20.205   4.526  0.00  0.00    +0.367 C 
ATOM     60  OD2 ASP A   7      23.138  19.329   5.393  0.00  0.00    -0.246 OA
ATOM     61  OD1 ASP A   7      23.484  21.406   4.814  0.00  0.00    -0.246 OA
ENDBRANCH  58  59
ENDBRANCH  46  58
ENDBRANCH  43  46
ENDBRANCH  40  42
ENDBRANCH  38  40
ENDBRANCH  35  36
ENDBRANCH  32  35
ENDBRANCH   1  31
BRANCH   1  62
ATOM     62  CB  THR A   4      21.487  29.812   2.145  0.00  0.00    +0.137 C 
ATOM     63  CG2 THR A   4      21.550  30.757   0.973  0.00  0.00    +0.034 C 
BRANCH  62  64
ATOM     64  OG1 THR A   4      20.636  30.389   3.138  0.00  0.00    -0.382 OA
ATOM     65  HG1 THR A   4      20.605  29.795   3.930  0.00  0.00    +0.210 HD
ENDBRANCH  62  64
ENDBRANCH   1  62
TORSDOF 28
REMARK  Name = ../refined-set-2016/7upj/7upj_pocket.pdb
REMARK  182 active torsions:
REMARK  status: ('A' for Active; 'I' for Inactive)
REMARK    1  A    between atoms: _1  and  _3
REMARK    2  A    between atoms: _3  and  _4
REMARK    3  A    between atoms: _3  and  _6
REMARK    4  A    between atoms: _6  and  _7
REMARK    5  A    between atoms: _7  and  _8
REMARK    6  A    between atoms: _8  and  _9
REMARK    7  A    between atoms: _18  and  _20
REMARK    8  A    between atoms: _20  and  _21
REMARK    9  A    between atoms: _20  and  _23
REMARK   10  A    between atoms: _23  and  _24
REMARK   11  A    between atoms: _27  and  _29
REMARK   12  A    between atoms: _29  and  _30
REMARK   13  A    between atoms: _29  and  _32
REMARK   14  A    between atoms: _32  and  _33
REMARK   15  A    between atoms: _36  and  _38
REMARK   16  A    between atoms: _38  and  _39
REMARK   17  A    between atoms: _38  and  _41
REMARK   18  A    between atoms: _41  and  _42
REMARK   19  A    between atoms: _45  and  _47
REMARK   20  A    between atoms: _47  and  _48
REMARK   21  A    between atoms: _47  and  _50
REMARK   22  A    between atoms: _50  and  _51
REMARK   23  A    between atoms: _54  and  _56
REMARK   24  A    between atoms: _56  and  _57
REMARK   25  A    between atoms: _59  and  _61
REMARK   26  A    between atoms: _61  and  _62
REMARK   27  A    between atoms: _65  and  _67
REMARK   28  A    between atoms: _67  and  _68
REMARK   29  A    between atoms: _67  and  _70
REMARK   30  A    between atoms: _70  and  _71
REMARK   31  A    between atoms: _74  and  _76
REMARK   32  A    between atoms: _76  and  _77
REMARK   33  A    between atoms: _76  and  _79
REMARK   34  A    between atoms: _79  and  _80
REMARK   35  A    between atoms: _83  and  _85
REMARK   36  A    between atoms: _85  and  _86
REMARK   37  A    between atoms: _85  and  _88
REMARK   38  A    between atoms: _88  and  _89
REMARK   39  A    between atoms: _92  and  _94
REMARK   40  A    between atoms: _94  and  _95
REMARK   41  A    between atoms: _94  and  _97
REMARK   42  A    between atoms: _100  and  _102
REMARK   43  A    between atoms: _102  and  _103
REMARK   44  A    between atoms: _102  and  _105
REMARK   45  A    between atoms: _105  and  _106
REMARK   46  A    between atoms: _106  and  _107
REMARK   47  A    between atoms: _107  and  _108
REMARK   48  A    between atoms: _108  and  _109
REMARK   49  A    between atoms: _113  and  _115
REMARK   50  A    between atoms: _115  and  _116
REMARK   51  A    between atoms: _115  and  _118
REMARK   52  A    between atoms: _118  and  _119
REMARK   53  A    between atoms: _119  and  _120
REMARK   54  A    between atoms: _122  and  _124
REMARK   55  A    between atoms: _124  and  _125
REMARK   56  A    between atoms: _124  and  _127
REMARK   57  A    between atoms: _127  and  _128
REMARK   58  A    between atoms: _131  and  _133
REMARK   59  A    between atoms: _133  and  _134
REMARK   60  A    between atoms: _136  and  _138
REMARK   61  A    between atoms: _138  and  _139
REMARK   62  A    between atoms: _141  and  _143
REMARK   63  A    between atoms: _143  and  _144
REMARK   64  A    between atoms: _143  and  _146
REMARK   65  A    between atoms: _146  and  _147
REMARK   66  A    between atoms: _150  and  _152
REMARK   67  A    between atoms: _152  and  _153
REMARK   68  A    between atoms: _155  and  _157
REMARK   69  A    between atoms: _157  and  _158
REMARK   70  A    between atoms: _160  and  _162
REMARK   71  A    between atoms: _162  and  _163
REMARK   72  A    between atoms: _162  and  _165
REMARK   73  A    between atoms: _165  and  _166
REMARK   74  A    between atoms: _172  and  _174
REMARK   75  A    between atoms: _174  and  _175
REMARK   76  A    between atoms: _174  and  _177
REMARK   77  A    between atoms: _177  and  _178
REMARK   78  A    between atoms: _181  and  _183
REMARK   79  A    between atoms: _183  and  _184
REMARK   80  A    between atoms: _183  and  _186
REMARK   81  A    between atoms: _186  and  _187
REMARK   82  A    between atoms: _190  and  _192
REMARK   83  A    between atoms: _192  and  _193
REMARK   84  A    between atoms: _192  and  _195
REMARK   85  A    between atoms: _195  and  _196
REMARK   86  A    between atoms: _200  and  _201
REMARK   87  A    between atoms: _206  and  _208
REMARK   88  A    between atoms: _208  and  _209
REMARK   89  A    between atoms: _208  and  _211
REMARK   90  A    between atoms: _214  and  _216
REMARK   91  A    between atoms: _216  and  _217
REMARK   92  A    between atoms: _216  and  _219
REMARK   93  A    between atoms: _219  and  _220
REMARK   94  A    between atoms: _225  and  _227
REMARK   95  A    between atoms: _227  and  _228
REMARK   96  A    between atoms: _227  and  _230
REMARK   97  A    between atoms: _230  and  _231
REMARK   98  A    between atoms: _234  and  _236
REMARK   99  A    between atoms: _236  and  _237
REMARK  100  A    between atoms: _236  and  _239
REMARK  101  A    between atoms: _239  and  _240
REMARK  102  A    between atoms: _243  and  _245
REMARK  103  A    between atoms: _245  and  _246
REMARK  104  A    between atoms: _248  and  _250
REMARK  105  A    between atoms: _250  and  _251
REMARK  106  A    between atoms: _250  and  _253
REMARK  107  A    between atoms: _253  and  _254
REMARK  108  A    between atoms: _254  and  _255
REMARK  109  A    between atoms: _255  and  _256
REMARK  110  A    between atoms: _265  and  _267
REMARK  111  A    between atoms: _267  and  _268
REMARK  112  A    between atoms: _267  and  _270
REMARK  113  A    between atoms: _270  and  _271
REMARK  114  A    between atoms: _271  and  _272
REMARK  115  A    between atoms: _272  and  _273
REMARK  116  A    between atoms: _282  and  _284
REMARK  117  A    between atoms: _284  and  _285
REMARK  118  A    between atoms: _284  and  _287
REMARK  119  A    between atoms: _287  and  _288
REMARK  120  A    between atoms: _291  and  _293
REMARK  121  A    between atoms: _293  and  _294
REMARK  122  A    between atoms: _293  and  _296
REMARK  123  A    between atoms: _296  and  _297
REMARK  124  A    between atoms: _300  and  _302
REMARK  125  A    between atoms: _302  and  _303
REMARK  126  A    between atoms: _302  and  _305
REMARK  127  A    between atoms: _305  and  _306
REMARK  128  A    between atoms: _309  and  _311
REMARK  129  A    between atoms: _311  and  _312
REMARK  130  A    between atoms: _311  and  _314
REMARK  131  A    between atoms: _314  and  _315
REMARK  132  A    between atoms: _318  and  _320
REMARK  133  A    between atoms: _320  and  _321
REMARK  134  A    between atoms: _323  and  _325
REMARK  135  A    between atoms: _325  and  _326
REMARK  136  A    between atoms: _329  and  _331
REMARK  137  A    between atoms: _331  and  _332
REMARK  138  A    between atoms: _331  and  _334
REMARK  139  A    between atoms: _334  and  _335
REMARK  140  A    between atoms: _338  and  _340
REMARK  141  A    between atoms: _340  and  _341
REMARK  142  A    between atoms: _340  and  _343
REMARK  143  A    between atoms: _343  and  _344
REMARK  144  A    between atoms: _347  and  _349
REMARK  145  A    between atoms: _349  and  _350
REMARK  146  A    between atoms: _349  and  _352
REMARK  147  A    between atoms: _355  and  _357
REMARK  148  A    between atoms: _357  and  _358
REMARK  149  A    between atoms: _357  and  _360
REMARK  150  A    between atoms: _360  and  _361
REMARK  151  A    between atoms: _364  and  _366
REMARK  152  A    between atoms: _366  and  _367
REMARK  153  A    between atoms: _369  and  _371
REMARK  154  A    between atoms: _371  and  _372
REMARK  155  A    between atoms: _374  and  _376
REMARK  156  A    between atoms: _376  and  _377
REMARK  157  A    between atoms: _376  and  _379
REMARK  158  A    between atoms: _379  and  _380
REMARK  159  A    between atoms: _383  and  _385
REMARK  160  A    between atoms: _385  and  _386
REMARK  161  A    between atoms: _388  and  _390
REMARK  162  A    between atoms: _390  and  _391
REMARK  163  A    between atoms: _393  and  _395
REMARK  164  A    between atoms: _395  and  _396
REMARK  165  A    between atoms: _395  and  _398
REMARK  166  A    between atoms: _398  and  _399
REMARK  167  A    between atoms: _403  and  _404
REMARK  168  A    between atoms: _409  and  _411
REMARK  169  A    between atoms: _411  and  _412
REMARK  170  A    between atoms: _411  and  _414
REMARK  171  A    between atoms: _417  and  _419
REMARK  172  A    between atoms: _419  and  _420
REMARK  173  A    between atoms: _419  and  _422
REMARK  174  A    between atoms: _422  and  _423
REMARK  175  A    between atoms: _428  and  _430
REMARK  176  A    between atoms: _430  and  _431
REMARK  177  A    between atoms: _430  and  _433
REMARK  178  A    between atoms: _433  and  _434
REMARK  179  A    between atoms: _437  and  _439
REMARK  180  A    between atoms: _439  and  _440
REMARK  181  A    between atoms: _439  and  _442
REMARK  182  A    between atoms: _442  and  _443
REMARK                            x       y       z     vdW  Elec       q    Type
REMARK                         _______ _______ _______ _____ _____    ______ ____
ROOT
ATOM      1  CA  VAL A   1      14.852  18.258  -3.126  0.00  0.00    +0.133 C 
ENDROOT
BRANCH   1   2
ATOM      2  CB  VAL A   1      14.275  18.292  -1.672  0.00  0.00    +0.023 C 
ATOM      3  CG2 VAL A   1      15.346  17.973  -0.635  0.00  0.00    +0.002 C 
ATOM      4  CG1 VAL A   1      13.123  17.322  -1.537  0.00  0.00    +0.002 C 
ENDBRANCH   1   2
BRANCH   1   5
ATOM      5  N   VAL A   1      16.037  19.108  -3.241  0.00  0.00    -0.239 NA
ATOM      6  H   VAL A   1      15.926  20.138  -3.152  0.00  0.00    +0.142 HD
ENDBRANCH   1   5
BRANCH   1   7
ATOM      7  C   VAL A   1      13.743  18.710  -4.055  0.00  0.00    +0.224 C 
ATOM      8  O   VAL A   1      13.343  19.859  -4.017  0.00  0.00    -0.287 OA
ENDBRANCH   1   7
TORSDOF 3
REMARK  Name = ../refined-set-2016/7upj/7upj_pocket.pdb
REMARK  182 active torsions:
REMARK  status: ('A' for Active; 'I' for Inactive)
REMARK    1  A    between atoms: _1  and  _3
REMARK    2  A    between atoms: _3  and  _4
REMARK    3  A    between atoms: _3  and  _6
REMARK    4  A    between atoms: _6  and  _7
REMARK    5  A    between atoms: _7  and  _8
REMARK    6  A    between atoms: _8  and  _9
REMARK    7  A    between atoms: _18  and  _20
REMARK    8  A    between atoms: _20  and  _21
REMARK    9  A    between atoms: _20  and  _23
REMARK   10  A    between atoms: _23  and  _24
REMARK   11  A    between atoms: _27  and  _29
REMARK   12  A    between atoms: _29  and  _30
REMARK   13  A    between atoms: _29  and  _32
REMARK   14  A    between atoms: _32  and  _33
REMARK   15  A    between atoms: _36  and  _38
REMARK   16  A    between atoms: _38  and  _39
REMARK   17  A    between atoms: _38  and  _41
REMARK   18  A    between atoms: _41  and  _42
REMARK   19  A    between atoms: _45  and  _47
REMARK   20  A    between atoms: _47  and  _48
REMARK   21  A    between atoms: _47  and  _50
REMARK   22  A    between atoms: _50  and  _51
REMARK   23  A    between atoms: _54  and  _56
REMARK   24  A    between atoms: _56  and  _57
REMARK   25  A    between atoms: _59  and  _61
REMARK   26  A    between atoms: _61  and  _62
REMARK   27  A    between atoms: _65  and  _67
REMARK   28  A    between atoms: _67  and  _68
REMARK   29  A    between atoms: _67  and  _70
REMARK   30  A    between atoms: _70  and  _71
REMARK   31  A    between atoms: _74  and  _76
REMARK   32  A    between atoms: _76  and  _77
REMARK   33  A    between atoms: _76  and  _79
REMARK   34  A    between atoms: _79  and  _80
REMARK   35  A    between atoms: _83  and  _85
REMARK   36  A    between atoms: _85  and  _86
REMARK   37  A    between atoms: _85  and  _88
REMARK   38  A    between atoms: _88  and  _89
REMARK   39  A    between atoms: _92  and  _94
REMARK   40  A    between atoms: _94  and  _95
REMARK   41  A    between atoms: _94  and  _97
REMARK   42  A    between atoms: _100  and  _102
REMARK   43  A    between atoms: _102  and  _103
REMARK   44  A    between atoms: _102  and  _105
REMARK   45  A    between atoms: _105  and  _106
REMARK   46  A    between atoms: _106  and  _107
REMARK   47  A    between atoms: _107  and  _108
REMARK   48  A    between atoms: _108  and  _109
REMARK   49  A    between atoms: _113  and  _115
REMARK   50  A    between atoms: _115  and  _116
REMARK   51  A    between atoms: _115  and  _118
REMARK   52  A    between atoms: _118  and  _119
REMARK   53  A    between atoms: _119  and  _120
REMARK   54  A    between atoms: _122  and  _124
REMARK   55  A    between atoms: _124  and  _125
REMARK   56  A    between atoms: _124  and  _127
REMARK   57  A    between atoms: _127  and  _128
REMARK   58  A    between atoms: _131  and  _133
REMARK   59  A    between atoms: _133  and  _134
REMARK   60  A    between atoms: _136  and  _138
REMARK   61  A    between atoms: _138  and  _139
REMARK   62  A    between atoms: _141  and  _143
REMARK   63  A    between atoms: _143  and  _144
REMARK   64  A    between atoms: _143  and  _146
REMARK   65  A    between atoms: _146  and  _147
REMARK   66  A    between atoms: _150  and  _152
REMARK   67  A    between atoms: _152  and  _153
REMARK   68  A    between atoms: _155  and  _157
REMARK   69  A    between atoms: _157  and  _158
REMARK   70  A    between atoms: _160  and  _162
REMARK   71  A    between atoms: _162  and  _163
REMARK   72  A    between atoms: _162  and  _165
REMARK   73  A    between atoms: _165  and  _166
REMARK   74  A    between atoms: _172  and  _174
REMARK   75  A    between atoms: _174  and  _175
REMARK   76  A    between atoms: _174  and  _177
REMARK   77  A    between atoms: _177  and  _178
REMARK   78  A    between atoms: _181  and  _183
REMARK   79  A    between atoms: _183  and  _184
REMARK   80  A    between atoms: _183  and  _186
REMARK   81  A    between atoms: _186  and  _187
REMARK   82  A    between atoms: _190  and  _192
REMARK   83  A    between atoms: _192  and  _193
REMARK   84  A    between atoms: _192  and  _195
REMARK   85  A    between atoms: _195  and  _196
REMARK   86  A    between atoms: _200  and  _201
REMARK   87  A    between atoms: _206  and  _208
REMARK   88  A    between atoms: _208  and  _209
REMARK   89  A    between atoms: _208  and  _211
REMARK   90  A    between atoms: _214  and  _216
REMARK   91  A    between atoms: _216  and  _217
REMARK   92  A    between atoms: _216  and  _219
REMARK   93  A    between atoms: _219  and  _220
REMARK   94  A    between atoms: _225  and  _227
REMARK   95  A    between atoms: _227  and  _228
REMARK   96  A    between atoms: _227  and  _230
REMARK   97  A    between atoms: _230  and  _231
REMARK   98  A    between atoms: _234  and  _236
REMARK   99  A    between atoms: _236  and  _237
REMARK  100  A    between atoms: _236  and  _239
REMARK  101  A    between atoms: _239  and  _240
REMARK  102  A    between atoms: _243  and  _245
REMARK  103  A    between atoms: _245  and  _246
REMARK  104  A    between atoms: _248  and  _250
REMARK  105  A    between atoms: _250  and  _251
REMARK  106  A    between atoms: _250  and  _253
REMARK  107  A    between atoms: _253  and  _254
REMARK  108  A    between atoms: _254  and  _255
REMARK  109  A    between atoms: _255  and  _256
REMARK  110  A    between atoms: _265  and  _267
REMARK  111  A    between atoms: _267  and  _268
REMARK  112  A    between atoms: _267  and  _270
REMARK  113  A    between atoms: _270  and  _271
REMARK  114  A    between atoms: _271  and  _272
REMARK  115  A    between atoms: _272  and  _273
REMARK  116  A    between atoms: _282  and  _284
REMARK  117  A    between atoms: _284  and  _285
REMARK  118  A    between atoms: _284  and  _287
REMARK  119  A    between atoms: _287  and  _288
REMARK  120  A    between atoms: _291  and  _293
REMARK  121  A    between atoms: _293  and  _294
REMARK  122  A    between atoms: _293  and  _296
REMARK  123  A    between atoms: _296  and  _297
REMARK  124  A    between atoms: _300  and  _302
REMARK  125  A    between atoms: _302  and  _303
REMARK  126  A    between atoms: _302  and  _305
REMARK  127  A    between atoms: _305  and  _306
REMARK  128  A    between atoms: _309  and  _311
REMARK  129  A    between atoms: _311  and  _312
REMARK  130  A    between atoms: _311  and  _314
REMARK  131  A    between atoms: _314  and  _315
REMARK  132  A    between atoms: _318  and  _320
REMARK  133  A    between atoms: _320  and  _321
REMARK  134  A    between atoms: _323  and  _325
REMARK  135  A    between atoms: _325  and  _326
REMARK  136  A    between atoms: _329  and  _331
REMARK  137  A    between atoms: _331  and  _332
REMARK  138  A    between atoms: _331  and  _334
REMARK  139  A    between atoms: _334  and  _335
REMARK  140  A    between atoms: _338  and  _340
REMARK  141  A    between atoms: _340  and  _341
REMARK  142  A    between atoms: _340  and  _343
REMARK  143  A    between atoms: _343  and  _344
REMARK  144  A    between atoms: _347  and  _349
REMARK  145  A    between atoms: _349  and  _350
REMARK  146  A    between atoms: _349  and  _352
REMARK  147  A    between atoms: _355  and  _357
REMARK  148  A    between atoms: _357  and  _358
REMARK  149  A    between atoms: _357  and  _360
REMARK  150  A    between atoms: _360  and  _361
REMARK  151  A    between atoms: _364  and  _366
REMARK  152  A    between atoms: _366  and  _367
REMARK  153  A    between atoms: _369  and  _371
REMARK  154  A    between atoms: _371  and  _372
REMARK  155  A    between atoms: _374  and  _376
REMARK  156  A    between atoms: _376  and  _377
REMARK  157  A    between atoms: _376  and  _379
REMARK  158  A    between atoms: _379  and  _380
REMARK  159  A    between atoms: _383  and  _385
REMARK  160  A    between atoms: _385  and  _386
REMARK  161  A    between atoms: _388  and  _390
REMARK  162  A    between atoms: _390  and  _391
REMARK  163  A    between atoms: _393  and  _395
REMARK  164  A    between atoms: _395  and  _396
REMARK  165  A    between atoms: _395  and  _398
REMARK  166  A    between atoms: _398  and  _399
REMARK  167  A    between atoms: _403  and  _404
REMARK  168  A    between atoms: _409  and  _411
REMARK  169  A    between atoms: _411  and  _412
REMARK  170  A    between atoms: _411  and  _414
REMARK  171  A    between atoms: _417  and  _419
REMARK  172  A    between atoms: _419  and  _420
REMARK  173  A    between atoms: _419  and  _422
REMARK  174  A    between atoms: _422  and  _423
REMARK  175  A    between atoms: _428  and  _430
REMARK  176  A    between atoms: _430  and  _431
REMARK  177  A    between atoms: _430  and  _433
REMARK  178  A    between atoms: _433  and  _434
REMARK  179  A    between atoms: _437  and  _439
REMARK  180  A    between atoms: _439  and  _440
REMARK  181  A    between atoms: _439  and  _442
REMARK  182  A    between atoms: _442  and  _443
REMARK                            x       y       z     vdW  Elec       q    Type
REMARK                         _______ _______ _______ _____ _____    ______ ____
ROOT
ATOM      1  C   GLY A   3      12.748  19.340   9.394  0.00  0.00    +0.243 C 
ATOM      2  O   GLY A   3      13.027  18.799  10.470  0.00  0.00    -0.273 OA
ATOM      3  N   ILE A   4      11.960  20.404   9.321  0.00  0.00    -0.297 N 
ATOM      4  H   ILE A   4      11.710  20.789   8.388  0.00  0.00    +0.150 HD
ENDROOT
BRANCH   3   5
ATOM      5  CA  ILE A   4      11.437  21.045  10.523  0.00  0.00    +0.149 C 
BRANCH   5   6
ATOM      6  C   ILE A   4      10.331  20.227  11.192  0.00  0.00    +0.241 C 
ATOM      7  O   ILE A   4      10.181  20.274  12.410  0.00  0.00    -0.273 OA
ATOM      8  N   GLY A   5       9.605  19.438  10.402  0.00  0.00    -0.295 N 
ATOM      9  H   GLY A   5       9.811  19.400   9.383  0.00  0.00    +0.150 HD
BRANCH   8  10
ATOM     10  CA  GLY A   5       8.526  18.629  10.949  0.00  0.00    +0.176 C 
BRANCH  10  11
ATOM     11  C   GLY A   5       8.706  17.117  11.002  0.00  0.00    +0.243 C 
ATOM     12  O   GLY A   5       7.730  16.387  11.192  0.00  0.00    -0.273 OA
ATOM     13  N   GLY A   6       9.933  16.634  10.898  0.00  0.00    -0.296 N 
ATOM     14  H   GLY A   6      10.744  17.276  10.787  0.00  0.00    +0.150 HD
BRANCH  13  15
ATOM     15  CA  GLY A   6      10.132  15.203  10.940  0.00  0.00    +0.163 C 
BRANCH  15  16
ATOM     16  C   GLY A   6      10.982  14.707   9.786  0.00  0.00    +0.229 C 
ATOM     17  O   GLY A   6      11.544  15.507   9.028  0.00  0.00    -0.286 OA
ENDBRANCH  15  16
ENDBRANCH  13  15
ENDBRANCH  10  11
ENDBRANCH   8  10
ENDBRANCH   5   6
BRANCH   5  18
ATOM     18  CB  ILE A   4      10.965  22.505  10.214  0.00  0.00    +0.027 C 
ATOM     19  CG2 ILE A   4       9.426  22.635  10.153  0.00  0.00    +0.002 C 
BRANCH  18  20
ATOM     20  CG1 ILE A   4      11.506  23.449  11.265  0.00  0.00    +0.002 C 
ATOM     21  CD1 ILE A   4      11.639  24.834  10.730  0.00  0.00    +0.000 C 
ENDBRANCH  18  20
ENDBRANCH   5  18
ENDBRANCH   3   5
BRANCH   1  22
ATOM     22  CA  GLY A   3      13.238  18.759   8.077  0.00  0.00    +0.176 C 
BRANCH  22  24
ATOM     23  C   GLY A   2      14.853  16.920   8.043  0.00  0.00    +0.243 C 
ATOM     24  N   GLY A   3      13.621  17.376   8.294  0.00  0.00    -0.295 N 
ATOM     25  H   GLY A   3      12.908  16.713   8.660  0.00  0.00    +0.150 HD
ATOM     26  O   GLY A   2      15.752  17.600   7.537  0.00  0.00    -0.273 OA
BRANCH  23  27
ATOM     27  CA  GLY A   2      15.097  15.454   8.357  0.00  0.00    +0.176 C 
BRANCH  27  29
ATOM     28  C   ILE A   1      15.428  14.076   6.410  0.00  0.00    +0.238 C 
ATOM     29  N   GLY A   2      15.951  14.815   7.380  0.00  0.00    -0.296 N 
ATOM     30  H   GLY A   2      16.982  14.936   7.438  0.00  0.00    +0.150 HD
ATOM     31  O   ILE A   1      14.218  13.834   6.318  0.00  0.00    -0.274 OA
BRANCH  28  32
ATOM     32  CA  ILE A   1      16.416  13.468   5.427  0.00  0.00    +0.145 C 
BRANCH  32  33
ATOM     33  N   ILE A   1      15.944  12.124   5.088  0.00  0.00    -0.238 NA
ATOM     34  H   ILE A   1      14.966  11.987   4.763  0.00  0.00    +0.142 HD
ENDBRANCH  32  33
BRANCH  32  35
ATOM     35  CB  ILE A   1      16.539  14.433   4.195  0.00  0.00    +0.025 C 
ATOM     36  CG2 ILE A   1      17.535  13.881   3.145  0.00  0.00    +0.002 C 
BRANCH  35  37
ATOM     37  CG1 ILE A   1      15.177  14.704   3.569  0.00  0.00    +0.002 C 
ATOM     38  CD1 ILE A   1      15.160  15.924   2.691  0.00  0.00    +0.000 C 
ENDBRANCH  35  37
ENDBRANCH  32  35
ENDBRANCH  28  32
ENDBRANCH  27  29
ENDBRANCH  23  27
ENDBRANCH  22  24
ENDBRANCH   1  22
TORSDOF 16
REMARK  Name = ../refined-set-2016/7upj/7upj_pocket.pdb
REMARK  182 active torsions:
REMARK  status: ('A' for Active; 'I' for Inactive)
REMARK    1  A    between atoms: _1  and  _3
REMARK    2  A    between atoms: _3  and  _4
REMARK    3  A    between atoms: _3  and  _6
REMARK    4  A    between atoms: _6  and  _7
REMARK    5  A    between atoms: _7  and  _8
REMARK    6  A    between atoms: _8  and  _9
REMARK    7  A    between atoms: _18  and  _20
REMARK    8  A    between atoms: _20  and  _21
REMARK    9  A    between atoms: _20  and  _23
REMARK   10  A    between atoms: _23  and  _24
REMARK   11  A    between atoms: _27  and  _29
REMARK   12  A    between atoms: _29  and  _30
REMARK   13  A    between atoms: _29  and  _32
REMARK   14  A    between atoms: _32  and  _33
REMARK   15  A    between atoms: _36  and  _38
REMARK   16  A    between atoms: _38  and  _39
REMARK   17  A    between atoms: _38  and  _41
REMARK   18  A    between atoms: _41  and  _42
REMARK   19  A    between atoms: _45  and  _47
REMARK   20  A    between atoms: _47  and  _48
REMARK   21  A    between atoms: _47  and  _50
REMARK   22  A    between atoms: _50  and  _51
REMARK   23  A    between atoms: _54  and  _56
REMARK   24  A    between atoms: _56  and  _57
REMARK   25  A    between atoms: _59  and  _61
REMARK   26  A    between atoms: _61  and  _62
REMARK   27  A    between atoms: _65  and  _67
REMARK   28  A    between atoms: _67  and  _68
REMARK   29  A    between atoms: _67  and  _70
REMARK   30  A    between atoms: _70  and  _71
REMARK   31  A    between atoms: _74  and  _76
REMARK   32  A    between atoms: _76  and  _77
REMARK   33  A    between atoms: _76  and  _79
REMARK   34  A    between atoms: _79  and  _80
REMARK   35  A    between atoms: _83  and  _85
REMARK   36  A    between atoms: _85  and  _86
REMARK   37  A    between atoms: _85  and  _88
REMARK   38  A    between atoms: _88  and  _89
REMARK   39  A    between atoms: _92  and  _94
REMARK   40  A    between atoms: _94  and  _95
REMARK   41  A    between atoms: _94  and  _97
REMARK   42  A    between atoms: _100  and  _102
REMARK   43  A    between atoms: _102  and  _103
REMARK   44  A    between atoms: _102  and  _105
REMARK   45  A    between atoms: _105  and  _106
REMARK   46  A    between atoms: _106  and  _107
REMARK   47  A    between atoms: _107  and  _108
REMARK   48  A    between atoms: _108  and  _109
REMARK   49  A    between atoms: _113  and  _115
REMARK   50  A    between atoms: _115  and  _116
REMARK   51  A    between atoms: _115  and  _118
REMARK   52  A    between atoms: _118  and  _119
REMARK   53  A    between atoms: _119  and  _120
REMARK   54  A    between atoms: _122  and  _124
REMARK   55  A    between atoms: _124  and  _125
REMARK   56  A    between atoms: _124  and  _127
REMARK   57  A    between atoms: _127  and  _128
REMARK   58  A    between atoms: _131  and  _133
REMARK   59  A    between atoms: _133  and  _134
REMARK   60  A    between atoms: _136  and  _138
REMARK   61  A    between atoms: _138  and  _139
REMARK   62  A    between atoms: _141  and  _143
REMARK   63  A    between atoms: _143  and  _144
REMARK   64  A    between atoms: _143  and  _146
REMARK   65  A    between atoms: _146  and  _147
REMARK   66  A    between atoms: _150  and  _152
REMARK   67  A    between atoms: _152  and  _153
REMARK   68  A    between atoms: _155  and  _157
REMARK   69  A    between atoms: _157  and  _158
REMARK   70  A    between atoms: _160  and  _162
REMARK   71  A    between atoms: _162  and  _163
REMARK   72  A    between atoms: _162  and  _165
REMARK   73  A    between atoms: _165  and  _166
REMARK   74  A    between atoms: _172  and  _174
REMARK   75  A    between atoms: _174  and  _175
REMARK   76  A    between atoms: _174  and  _177
REMARK   77  A    between atoms: _177  and  _178
REMARK   78  A    between atoms: _181  and  _183
REMARK   79  A    between atoms: _183  and  _184
REMARK   80  A    between atoms: _183  and  _186
REMARK   81  A    between atoms: _186  and  _187
REMARK   82  A    between atoms: _190  and  _192
REMARK   83  A    between atoms: _192  and  _193
REMARK   84  A    between atoms: _192  and  _195
REMARK   85  A    between atoms: _195  and  _196
REMARK   86  A    between atoms: _200  and  _201
REMARK   87  A    between atoms: _206  and  _208
REMARK   88  A    between atoms: _208  and  _209
REMARK   89  A    between atoms: _208  and  _211
REMARK   90  A    between atoms: _214  and  _216
REMARK   91  A    between atoms: _216  and  _217
REMARK   92  A    between atoms: _216  and  _219
REMARK   93  A    between atoms: _219  and  _220
REMARK   94  A    between atoms: _225  and  _227
REMARK   95  A    between atoms: _227  and  _228
REMARK   96  A    between atoms: _227  and  _230
REMARK   97  A    between atoms: _230  and  _231
REMARK   98  A    between atoms: _234  and  _236
REMARK   99  A    between atoms: _236  and  _237
REMARK  100  A    between atoms: _236  and  _239
REMARK  101  A    between atoms: _239  and  _240
REMARK  102  A    between atoms: _243  and  _245
REMARK  103  A    between atoms: _245  and  _246
REMARK  104  A    between atoms: _248  and  _250
REMARK  105  A    between atoms: _250  and  _251
REMARK  106  A    between atoms: _250  and  _253
REMARK  107  A    between atoms: _253  and  _254
REMARK  108  A    between atoms: _254  and  _255
REMARK  109  A    between atoms: _255  and  _256
REMARK  110  A    between atoms: _265  and  _267
REMARK  111  A    between atoms: _267  and  _268
REMARK  112  A    between atoms: _267  and  _270
REMARK  113  A    between atoms: _270  and  _271
REMARK  114  A    between atoms: _271  and  _272
REMARK  115  A    between atoms: _272  and  _273
REMARK  116  A    between atoms: _282  and  _284
REMARK  117  A    between atoms: _284  and  _285
REMARK  118  A    between atoms: _284  and  _287
REMARK  119  A    between atoms: _287  and  _288
REMARK  120  A    between atoms: _291  and  _293
REMARK  121  A    between atoms: _293  and  _294
REMARK  122  A    between atoms: _293  and  _296
REMARK  123  A    between atoms: _296  and  _297
REMARK  124  A    between atoms: _300  and  _302
REMARK  125  A    between atoms: _302  and  _303
REMARK  126  A    between atoms: _302  and  _305
REMARK  127  A    between atoms: _305  and  _306
REMARK  128  A    between atoms: _309  and  _311
REMARK  129  A    between atoms: _311  and  _312
REMARK  130  A    between atoms: _311  and  _314
REMARK  131  A    between atoms: _314  and  _315
REMARK  132  A    between atoms: _318  and  _320
REMARK  133  A    between atoms: _320  and  _321
REMARK  134  A    between atoms: _323  and  _325
REMARK  135  A    between atoms: _325  and  _326
REMARK  136  A    between atoms: _329  and  _331
REMARK  137  A    between atoms: _331  and  _332
REMARK  138  A    between atoms: _331  and  _334
REMARK  139  A    between atoms: _334  and  _335
REMARK  140  A    between atoms: _338  and  _340
REMARK  141  A    between atoms: _340  and  _341
REMARK  142  A    between atoms: _340  and  _343
REMARK  143  A    between atoms: _343  and  _344
REMARK  144  A    between atoms: _347  and  _349
REMARK  145  A    between atoms: _349  and  _350
REMARK  146  A    between atoms: _349  and  _352
REMARK  147  A    between atoms: _355  and  _357
REMARK  148  A    between atoms: _357  and  _358
REMARK  149  A    between atoms: _357  and  _360
REMARK  150  A    between atoms: _360  and  _361
REMARK  151  A    between atoms: _364  and  _366
REMARK  152  A    between atoms: _366  and  _367
REMARK  153  A    between atoms: _369  and  _371
REMARK  154  A    between atoms: _371  and  _372
REMARK  155  A    between atoms: _374  and  _376
REMARK  156  A    between atoms: _376  and  _377
REMARK  157  A    between atoms: _376  and  _379
REMARK  158  A    between atoms: _379  and  _380
REMARK  159  A    between atoms: _383  and  _385
REMARK  160  A    between atoms: _385  and  _386
REMARK  161  A    between atoms: _388  and  _390
REMARK  162  A    between atoms: _390  and  _391
REMARK  163  A    between atoms: _393  and  _395
REMARK  164  A    between atoms: _395  and  _396
REMARK  165  A    between atoms: _395  and  _398
REMARK  166  A    between atoms: _398  and  _399
REMARK  167  A    between atoms: _403  and  _404
REMARK  168  A    between atoms: _409  and  _411
REMARK  169  A    between atoms: _411  and  _412
REMARK  170  A    between atoms: _411  and  _414
REMARK  171  A    between atoms: _417  and  _419
REMARK  172  A    between atoms: _419  and  _420
REMARK  173  A    between atoms: _419  and  _422
REMARK  174  A    between atoms: _422  and  _423
REMARK  175  A    between atoms: _428  and  _430
REMARK  176  A    between atoms: _430  and  _431
REMARK  177  A    between atoms: _430  and  _433
REMARK  178  A    between atoms: _433  and  _434
REMARK  179  A    between atoms: _437  and  _439
REMARK  180  A    between atoms: _439  and  _440
REMARK  181  A    between atoms: _439  and  _442
REMARK  182  A    between atoms: _442  and  _443
REMARK                            x       y       z     vdW  Elec       q    Type
REMARK                         _______ _______ _______ _____ _____    ______ ____
ROOT
ATOM      1  CA  ASN A   4      11.027  22.364  -5.166  0.00  0.00    +0.158 C 
ENDROOT
BRANCH   1   4
ATOM      2  C   VAL A   3       9.311  22.537  -3.416  0.00  0.00    +0.241 C 
ATOM      3  O   VAL A   3       9.954  21.825  -2.651  0.00  0.00    -0.273 OA
ATOM      4  N   ASN A   4       9.739  22.850  -4.642  0.00  0.00    -0.297 N 
ATOM      5  H   ASN A   4       9.145  23.455  -5.245  0.00  0.00    +0.150 HD
BRANCH   2   6
ATOM      6  CA  VAL A   3       7.982  23.127  -2.949  0.00  0.00    +0.149 C 
BRANCH   6   8
ATOM      7  C   PRO A   2       6.265  22.238  -1.355  0.00  0.00    +0.241 C 
ATOM      8  N   VAL A   3       7.536  22.361  -1.762  0.00  0.00    -0.297 N 
ATOM      9  H   VAL A   3       8.267  21.881  -1.200  0.00  0.00    +0.150 HD
ATOM     10  O   PRO A   2       5.325  22.809  -1.910  0.00  0.00    -0.273 OA
BRANCH   7  16
ATOM     11  C   THR A   1       7.139  19.267  -0.680  0.00  0.00    +0.244 C 
ATOM     12  N   PRO A   2       7.000  20.305   0.173  0.00  0.00    -0.272 N 
ATOM     13  CD  PRO A   2       7.544  20.460   1.542  0.00  0.00    +0.094 C 
ATOM     14  CG  PRO A   2       7.306  21.911   1.824  0.00  0.00    +0.024 C 
ATOM     15  CB  PRO A   2       5.951  22.143   1.210  0.00  0.00    +0.031 C 
ATOM     16  CA  PRO A   2       6.000  21.349  -0.108  0.00  0.00    +0.152 C 
ATOM     17  O   THR A   1       6.370  19.118  -1.627  0.00  0.00    -0.273 OA
BRANCH  11  18
ATOM     18  CA  THR A   1       8.203  18.194  -0.366  0.00  0.00    +0.172 C 
BRANCH  18  19
ATOM     19  CB  THR A   1       9.596  18.545  -0.984  0.00  0.00    +0.135 C 
ATOM     20  CG2 THR A   1       9.548  18.493  -2.523  0.00  0.00    +0.034 C 
BRANCH  19  21
ATOM     21  OG1 THR A   1      10.007  19.847  -0.547  0.00  0.00    -0.383 OA
ATOM     22  HG1 THR A   1       9.340  20.518  -0.839  0.00  0.00    +0.210 HD
ENDBRANCH  19  21
ENDBRANCH  18  19
BRANCH  18  23
ATOM     23  N   THR A   1       7.774  16.907  -0.884  0.00  0.00    -0.236 NA
ATOM     24  H   THR A   1       7.662  16.785  -1.911  0.00  0.00    +0.142 HD
ENDBRANCH  18  23
ENDBRANCH  11  18
ENDBRANCH   7  16
ENDBRANCH   6   8
BRANCH   6  25
ATOM     25  CB  VAL A   3       8.281  24.638  -2.666  0.00  0.00    +0.027 C 
ATOM     26  CG2 VAL A   3       9.183  24.799  -1.475  0.00  0.00    +0.002 C 
ATOM     27  CG1 VAL A   3       7.015  25.415  -2.484  0.00  0.00    +0.002 C 
ENDBRANCH   6  25
ENDBRANCH   2   6
ENDBRANCH   1   4
BRANCH   1  28
ATOM     28  C   ASN A   4      12.083  23.213  -4.467  0.00  0.00    +0.241 C 
ATOM     29  N   ILE A   5      13.190  22.603  -4.071  0.00  0.00    -0.297 N 
ATOM     30  H   ILE A   5      13.307  21.597  -4.307  0.00  0.00    +0.150 HD
ATOM     31  O   ASN A   4      11.907  24.414  -4.357  0.00  0.00    -0.273 OA
BRANCH  29  32
ATOM     32  CA  ILE A   5      14.253  23.263  -3.323  0.00  0.00    +0.149 C 
BRANCH  32  33
ATOM     33  C   ILE A   5      15.615  23.098  -3.953  0.00  0.00    +0.241 C 
ATOM     34  N   ILE A   6      16.344  24.193  -4.111  0.00  0.00    -0.298 N 
ATOM     35  H   ILE A   6      15.942  25.111  -3.834  0.00  0.00    +0.150 HD
ATOM     36  O   ILE A   5      16.014  21.995  -4.283  0.00  0.00    -0.273 OA
BRANCH  34  37
ATOM     37  CA  ILE A   6      17.708  24.149  -4.668  0.00  0.00    +0.137 C 
BRANCH  37  38
ATOM     38  CB  ILE A   6      17.945  25.248  -5.732  0.00  0.00    +0.026 C 
ATOM     39  CG2 ILE A   6      19.320  25.104  -6.326  0.00  0.00    +0.002 C 
BRANCH  38  40
ATOM     40  CG1 ILE A   6      16.892  25.169  -6.840  0.00  0.00    +0.002 C 
ATOM     41  CD1 ILE A   6      16.982  23.919  -7.709  0.00  0.00    +0.000 C 
ENDBRANCH  38  40
ENDBRANCH  37  38
BRANCH  37  42
ATOM     42  C   ILE A   6      18.639  24.412  -3.479  0.00  0.00    +0.227 C 
ATOM     43  O   ILE A   6      18.637  25.513  -2.914  0.00  0.00    -0.286 OA
ENDBRANCH  37  42
ENDBRANCH  34  37
ENDBRANCH  32  33
BRANCH  32  44
ATOM     44  CB  ILE A   5      14.375  22.618  -1.917  0.00  0.00    +0.027 C 
ATOM     45  CG2 ILE A   5      15.405  23.287  -1.095  0.00  0.00    +0.002 C 
BRANCH  44  46
ATOM     46  CG1 ILE A   5      13.067  22.725  -1.164  0.00  0.00    +0.002 C 
ATOM     47  CD1 ILE A   5      12.711  24.139  -0.803  0.00  0.00    +0.000 C 
ENDBRANCH  44  46
ENDBRANCH  32  44
ENDBRANCH  29  32
ENDBRANCH   1  28
BRANCH   1  48
ATOM     48  CB  ASN A   4      11.145  22.559  -6.693  0.00  0.00    +0.114 C 
BRANCH  48  49
ATOM     49  CG  ASN A   4      10.152  21.705  -7.513  0.00  0.00    +0.222 C 
ATOM     50  OD1 ASN A   4       9.938  20.523  -7.254  0.00  0.00    -0.275 OA
ATOM     51  ND2 ASN A   4       9.587  22.310  -8.544  0.00  0.00    -0.329 N 
ATOM     52 HD21 ASN A   4       9.790  23.312  -8.734  0.00  0.00    +0.145 HD
ATOM     53 HD22 ASN A   4       8.939  21.784  -9.165  0.00  0.00    +0.145 HD
ENDBRANCH  48  49
ENDBRANCH   1  48
TORSDOF 20
REMARK  Name = ../refined-set-2016/7upj/7upj_pocket.pdb
REMARK  182 active torsions:
REMARK  status: ('A' for Active; 'I' for Inactive)
REMARK    1  A    between atoms: _1  and  _3
REMARK    2  A    between atoms: _3  and  _4
REMARK    3  A    between atoms: _3  and  _6
REMARK    4  A    between atoms: _6  and  _7
REMARK    5  A    between atoms: _7  and  _8
REMARK    6  A    between atoms: _8  and  _9
REMARK    7  A    between atoms: _18  and  _20
REMARK    8  A    between atoms: _20  and  _21
REMARK    9  A    between atoms: _20  and  _23
REMARK   10  A    between atoms: _23  and  _24
REMARK   11  A    between atoms: _27  and  _29
REMARK   12  A    between atoms: _29  and  _30
REMARK   13  A    between atoms: _29  and  _32
REMARK   14  A    between atoms: _32  and  _33
REMARK   15  A    between atoms: _36  and  _38
REMARK   16  A    between atoms: _38  and  _39
REMARK   17  A    between atoms: _38  and  _41
REMARK   18  A    between atoms: _41  and  _42
REMARK   19  A    between atoms: _45  and  _47
REMARK   20  A    between atoms: _47  and  _48
REMARK   21  A    between atoms: _47  and  _50
REMARK   22  A    between atoms: _50  and  _51
REMARK   23  A    between atoms: _54  and  _56
REMARK   24  A    between atoms: _56  and  _57
REMARK   25  A    between atoms: _59  and  _61
REMARK   26  A    between atoms: _61  and  _62
REMARK   27  A    between atoms: _65  and  _67
REMARK   28  A    between atoms: _67  and  _68
REMARK   29  A    between atoms: _67  and  _70
REMARK   30  A    between atoms: _70  and  _71
REMARK   31  A    between atoms: _74  and  _76
REMARK   32  A    between atoms: _76  and  _77
REMARK   33  A    between atoms: _76  and  _79
REMARK   34  A    between atoms: _79  and  _80
REMARK   35  A    between atoms: _83  and  _85
REMARK   36  A    between atoms: _85  and  _86
REMARK   37  A    between atoms: _85  and  _88
REMARK   38  A    between atoms: _88  and  _89
REMARK   39  A    between atoms: _92  and  _94
REMARK   40  A    between atoms: _94  and  _95
REMARK   41  A    between atoms: _94  and  _97
REMARK   42  A    between atoms: _100  and  _102
REMARK   43  A    between atoms: _102  and  _103
REMARK   44  A    between atoms: _102  and  _105
REMARK   45  A    between atoms: _105  and  _106
REMARK   46  A    between atoms: _106  and  _107
REMARK   47  A    between atoms: _107  and  _108
REMARK   48  A    between atoms: _108  and  _109
REMARK   49  A    between atoms: _113  and  _115
REMARK   50  A    between atoms: _115  and  _116
REMARK   51  A    between atoms: _115  and  _118
REMARK   52  A    between atoms: _118  and  _119
REMARK   53  A    between atoms: _119  and  _120
REMARK   54  A    between atoms: _122  and  _124
REMARK   55  A    between atoms: _124  and  _125
REMARK   56  A    between atoms: _124  and  _127
REMARK   57  A    between atoms: _127  and  _128
REMARK   58  A    between atoms: _131  and  _133
REMARK   59  A    between atoms: _133  and  _134
REMARK   60  A    between atoms: _136  and  _138
REMARK   61  A    between atoms: _138  and  _139
REMARK   62  A    between atoms: _141  and  _143
REMARK   63  A    between atoms: _143  and  _144
REMARK   64  A    between atoms: _143  and  _146
REMARK   65  A    between atoms: _146  and  _147
REMARK   66  A    between atoms: _150  and  _152
REMARK   67  A    between atoms: _152  and  _153
REMARK   68  A    between atoms: _155  and  _157
REMARK   69  A    between atoms: _157  and  _158
REMARK   70  A    between atoms: _160  and  _162
REMARK   71  A    between atoms: _162  and  _163
REMARK   72  A    between atoms: _162  and  _165
REMARK   73  A    between atoms: _165  and  _166
REMARK   74  A    between atoms: _172  and  _174
REMARK   75  A    between atoms: _174  and  _175
REMARK   76  A    between atoms: _174  and  _177
REMARK   77  A    between atoms: _177  and  _178
REMARK   78  A    between atoms: _181  and  _183
REMARK   79  A    between atoms: _183  and  _184
REMARK   80  A    between atoms: _183  and  _186
REMARK   81  A    between atoms: _186  and  _187
REMARK   82  A    between atoms: _190  and  _192
REMARK   83  A    between atoms: _192  and  _193
REMARK   84  A    between atoms: _192  and  _195
REMARK   85  A    between atoms: _195  and  _196
REMARK   86  A    between atoms: _200  and  _201
REMARK   87  A    between atoms: _206  and  _208
REMARK   88  A    between atoms: _208  and  _209
REMARK   89  A    between atoms: _208  and  _211
REMARK   90  A    between atoms: _214  and  _216
REMARK   91  A    between atoms: _216  and  _217
REMARK   92  A    between atoms: _216  and  _219
REMARK   93  A    between atoms: _219  and  _220
REMARK   94  A    between atoms: _225  and  _227
REMARK   95  A    between atoms: _227  and  _228
REMARK   96  A    between atoms: _227  and  _230
REMARK   97  A    between atoms: _230  and  _231
REMARK   98  A    between atoms: _234  and  _236
REMARK   99  A    between atoms: _236  and  _237
REMARK  100  A    between atoms: _236  and  _239
REMARK  101  A    between atoms: _239  and  _240
REMARK  102  A    between atoms: _243  and  _245
REMARK  103  A    between atoms: _245  and  _246
REMARK  104  A    between atoms: _248  and  _250
REMARK  105  A    between atoms: _250  and  _251
REMARK  106  A    between atoms: _250  and  _253
REMARK  107  A    between atoms: _253  and  _254
REMARK  108  A    between atoms: _254  and  _255
REMARK  109  A    between atoms: _255  and  _256
REMARK  110  A    between atoms: _265  and  _267
REMARK  111  A    between atoms: _267  and  _268
REMARK  112  A    between atoms: _267  and  _270
REMARK  113  A    between atoms: _270  and  _271
REMARK  114  A    between atoms: _271  and  _272
REMARK  115  A    between atoms: _272  and  _273
REMARK  116  A    between atoms: _282  and  _284
REMARK  117  A    between atoms: _284  and  _285
REMARK  118  A    between atoms: _284  and  _287
REMARK  119  A    between atoms: _287  and  _288
REMARK  120  A    between atoms: _291  and  _293
REMARK  121  A    between atoms: _293  and  _294
REMARK  122  A    between atoms: _293  and  _296
REMARK  123  A    between atoms: _296  and  _297
REMARK  124  A    between atoms: _300  and  _302
REMARK  125  A    between atoms: _302  and  _303
REMARK  126  A    between atoms: _302  and  _305
REMARK  127  A    between atoms: _305  and  _306
REMARK  128  A    between atoms: _309  and  _311
REMARK  129  A    between atoms: _311  and  _312
REMARK  130  A    between atoms: _311  and  _314
REMARK  131  A    between atoms: _314  and  _315
REMARK  132  A    between atoms: _318  and  _320
REMARK  133  A    between atoms: _320  and  _321
REMARK  134  A    between atoms: _323  and  _325
REMARK  135  A    between atoms: _325  and  _326
REMARK  136  A    between atoms: _329  and  _331
REMARK  137  A    between atoms: _331  and  _332
REMARK  138  A    between atoms: _331  and  _334
REMARK  139  A    between atoms: _334  and  _335
REMARK  140  A    between atoms: _338  and  _340
REMARK  141  A    between atoms: _340  and  _341
REMARK  142  A    between atoms: _340  and  _343
REMARK  143  A    between atoms: _343  and  _344
REMARK  144  A    between atoms: _347  and  _349
REMARK  145  A    between atoms: _349  and  _350
REMARK  146  A    between atoms: _349  and  _352
REMARK  147  A    between atoms: _355  and  _357
REMARK  148  A    between atoms: _357  and  _358
REMARK  149  A    between atoms: _357  and  _360
REMARK  150  A    between atoms: _360  and  _361
REMARK  151  A    between atoms: _364  and  _366
REMARK  152  A    between atoms: _366  and  _367
REMARK  153  A    between atoms: _369  and  _371
REMARK  154  A    between atoms: _371  and  _372
REMARK  155  A    between atoms: _374  and  _376
REMARK  156  A    between atoms: _376  and  _377
REMARK  157  A    between atoms: _376  and  _379
REMARK  158  A    between atoms: _379  and  _380
REMARK  159  A    between atoms: _383  and  _385
REMARK  160  A    between atoms: _385  and  _386
REMARK  161  A    between atoms: _388  and  _390
REMARK  162  A    between atoms: _390  and  _391
REMARK  163  A    between atoms: _393  and  _395
REMARK  164  A    between atoms: _395  and  _396
REMARK  165  A    between atoms: _395  and  _398
REMARK  166  A    between atoms: _398  and  _399
REMARK  167  A    between atoms: _403  and  _404
REMARK  168  A    between atoms: _409  and  _411
REMARK  169  A    between atoms: _411  and  _412
REMARK  170  A    between atoms: _411  and  _414
REMARK  171  A    between atoms: _417  and  _419
REMARK  172  A    between atoms: _419  and  _420
REMARK  173  A    between atoms: _419  and  _422
REMARK  174  A    between atoms: _422  and  _423
REMARK  175  A    between atoms: _428  and  _430
REMARK  176  A    between atoms: _430  and  _431
REMARK  177  A    between atoms: _430  and  _433
REMARK  178  A    between atoms: _433  and  _434
REMARK  179  A    between atoms: _437  and  _439
REMARK  180  A    between atoms: _439  and  _440
REMARK  181  A    between atoms: _439  and  _442
REMARK  182  A    between atoms: _442  and  _443
REMARK                            x       y       z     vdW  Elec       q    Type
REMARK                         _______ _______ _______ _____ _____    ______ ____
ROOT
ATOM      1  O   HOH     1       7.493  31.209   9.096  0.00  0.00    +0.000 OA
ENDROOT
TORSDOF 0
REMARK  Name = ../refined-set-2016/7upj/7upj_pocket.pdb
REMARK  182 active torsions:
REMARK  status: ('A' for Active; 'I' for Inactive)
REMARK    1  A    between atoms: _1  and  _3
REMARK    2  A    between atoms: _3  and  _4
REMARK    3  A    between atoms: _3  and  _6
REMARK    4  A    between atoms: _6  and  _7
REMARK    5  A    between atoms: _7  and  _8
REMARK    6  A    between atoms: _8  and  _9
REMARK    7  A    between atoms: _18  and  _20
REMARK    8  A    between atoms: _20  and  _21
REMARK    9  A    between atoms: _20  and  _23
REMARK   10  A    between atoms: _23  and  _24
REMARK   11  A    between atoms: _27  and  _29
REMARK   12  A    between atoms: _29  and  _30
REMARK   13  A    between atoms: _29  and  _32
REMARK   14  A    between atoms: _32  and  _33
REMARK   15  A    between atoms: _36  and  _38
REMARK   16  A    between atoms: _38  and  _39
REMARK   17  A    between atoms: _38  and  _41
REMARK   18  A    between atoms: _41  and  _42
REMARK   19  A    between atoms: _45  and  _47
REMARK   20  A    between atoms: _47  and  _48
REMARK   21  A    between atoms: _47  and  _50
REMARK   22  A    between atoms: _50  and  _51
REMARK   23  A    between atoms: _54  and  _56
REMARK   24  A    between atoms: _56  and  _57
REMARK   25  A    between atoms: _59  and  _61
REMARK   26  A    between atoms: _61  and  _62
REMARK   27  A    between atoms: _65  and  _67
REMARK   28  A    between atoms: _67  and  _68
REMARK   29  A    between atoms: _67  and  _70
REMARK   30  A    between atoms: _70  and  _71
REMARK   31  A    between atoms: _74  and  _76
REMARK   32  A    between atoms: _76  and  _77
REMARK   33  A    between atoms: _76  and  _79
REMARK   34  A    between atoms: _79  and  _80
REMARK   35  A    between atoms: _83  and  _85
REMARK   36  A    between atoms: _85  and  _86
REMARK   37  A    between atoms: _85  and  _88
REMARK   38  A    between atoms: _88  and  _89
REMARK   39  A    between atoms: _92  and  _94
REMARK   40  A    between atoms: _94  and  _95
REMARK   41  A    between atoms: _94  and  _97
REMARK   42  A    between atoms: _100  and  _102
REMARK   43  A    between atoms: _102  and  _103
REMARK   44  A    between atoms: _102  and  _105
REMARK   45  A    between atoms: _105  and  _106
REMARK   46  A    between atoms: _106  and  _107
REMARK   47  A    between atoms: _107  and  _108
REMARK   48  A    between atoms: _108  and  _109
REMARK   49  A    between atoms: _113  and  _115
REMARK   50  A    between atoms: _115  and  _116
REMARK   51  A    between atoms: _115  and  _118
REMARK   52  A    between atoms: _118  and  _119
REMARK   53  A    between atoms: _119  and  _120
REMARK   54  A    between atoms: _122  and  _124
REMARK   55  A    between atoms: _124  and  _125
REMARK   56  A    between atoms: _124  and  _127
REMARK   57  A    between atoms: _127  and  _128
REMARK   58  A    between atoms: _131  and  _133
REMARK   59  A    between atoms: _133  and  _134
REMARK   60  A    between atoms: _136  and  _138
REMARK   61  A    between atoms: _138  and  _139
REMARK   62  A    between atoms: _141  and  _143
REMARK   63  A    between atoms: _143  and  _144
REMARK   64  A    between atoms: _143  and  _146
REMARK   65  A    between atoms: _146  and  _147
REMARK   66  A    between atoms: _150  and  _152
REMARK   67  A    between atoms: _152  and  _153
REMARK   68  A    between atoms: _155  and  _157
REMARK   69  A    between atoms: _157  and  _158
REMARK   70  A    between atoms: _160  and  _162
REMARK   71  A    between atoms: _162  and  _163
REMARK   72  A    between atoms: _162  and  _165
REMARK   73  A    between atoms: _165  and  _166
REMARK   74  A    between atoms: _172  and  _174
REMARK   75  A    between atoms: _174  and  _175
REMARK   76  A    between atoms: _174  and  _177
REMARK   77  A    between atoms: _177  and  _178
REMARK   78  A    between atoms: _181  and  _183
REMARK   79  A    between atoms: _183  and  _184
REMARK   80  A    between atoms: _183  and  _186
REMARK   81  A    between atoms: _186  and  _187
REMARK   82  A    between atoms: _190  and  _192
REMARK   83  A    between atoms: _192  and  _193
REMARK   84  A    between atoms: _192  and  _195
REMARK   85  A    between atoms: _195  and  _196
REMARK   86  A    between atoms: _200  and  _201
REMARK   87  A    between atoms: _206  and  _208
REMARK   88  A    between atoms: _208  and  _209
REMARK   89  A    between atoms: _208  and  _211
REMARK   90  A    between atoms: _214  and  _216
REMARK   91  A    between atoms: _216  and  _217
REMARK   92  A    between atoms: _216  and  _219
REMARK   93  A    between atoms: _219  and  _220
REMARK   94  A    between atoms: _225  and  _227
REMARK   95  A    between atoms: _227  and  _228
REMARK   96  A    between atoms: _227  and  _230
REMARK   97  A    between atoms: _230  and  _231
REMARK   98  A    between atoms: _234  and  _236
REMARK   99  A    between atoms: _236  and  _237
REMARK  100  A    between atoms: _236  and  _239
REMARK  101  A    between atoms: _239  and  _240
REMARK  102  A    between atoms: _243  and  _245
REMARK  103  A    between atoms: _245  and  _246
REMARK  104  A    between atoms: _248  and  _250
REMARK  105  A    between atoms: _250  and  _251
REMARK  106  A    between atoms: _250  and  _253
REMARK  107  A    between atoms: _253  and  _254
REMARK  108  A    between atoms: _254  and  _255
REMARK  109  A    between atoms: _255  and  _256
REMARK  110  A    between atoms: _265  and  _267
REMARK  111  A    between atoms: _267  and  _268
REMARK  112  A    between atoms: _267  and  _270
REMARK  113  A    between atoms: _270  and  _271
REMARK  114  A    between atoms: _271  and  _272
REMARK  115  A    between atoms: _272  and  _273
REMARK  116  A    between atoms: _282  and  _284
REMARK  117  A    between atoms: _284  and  _285
REMARK  118  A    between atoms: _284  and  _287
REMARK  119  A    between atoms: _287  and  _288
REMARK  120  A    between atoms: _291  and  _293
REMARK  121  A    between atoms: _293  and  _294
REMARK  122  A    between atoms: _293  and  _296
REMARK  123  A    between atoms: _296  and  _297
REMARK  124  A    between atoms: _300  and  _302
REMARK  125  A    between atoms: _302  and  _303
REMARK  126  A    between atoms: _302  and  _305
REMARK  127  A    between atoms: _305  and  _306
REMARK  128  A    between atoms: _309  and  _311
REMARK  129  A    between atoms: _311  and  _312
REMARK  130  A    between atoms: _311  and  _314
REMARK  131  A    between atoms: _314  and  _315
REMARK  132  A    between atoms: _318  and  _320
REMARK  133  A    between atoms: _320  and  _321
REMARK  134  A    between atoms: _323  and  _325
REMARK  135  A    between atoms: _325  and  _326
REMARK  136  A    between atoms: _329  and  _331
REMARK  137  A    between atoms: _331  and  _332
REMARK  138  A    between atoms: _331  and  _334
REMARK  139  A    between atoms: _334  and  _335
REMARK  140  A    between atoms: _338  and  _340
REMARK  141  A    between atoms: _340  and  _341
REMARK  142  A    between atoms: _340  and  _343
REMARK  143  A    between atoms: _343  and  _344
REMARK  144  A    between atoms: _347  and  _349
REMARK  145  A    between atoms: _349  and  _350
REMARK  146  A    between atoms: _349  and  _352
REMARK  147  A    between atoms: _355  and  _357
REMARK  148  A    between atoms: _357  and  _358
REMARK  149  A    between atoms: _357  and  _360
REMARK  150  A    between atoms: _360  and  _361
REMARK  151  A    between atoms: _364  and  _366
REMARK  152  A    between atoms: _366  and  _367
REMARK  153  A    between atoms: _369  and  _371
REMARK  154  A    between atoms: _371  and  _372
REMARK  155  A    between atoms: _374  and  _376
REMARK  156  A    between atoms: _376  and  _377
REMARK  157  A    between atoms: _376  and  _379
REMARK  158  A    between atoms: _379  and  _380
REMARK  159  A    between atoms: _383  and  _385
REMARK  160  A    between atoms: _385  and  _386
REMARK  161  A    between atoms: _388  and  _390
REMARK  162  A    between atoms: _390  and  _391
REMARK  163  A    between atoms: _393  and  _395
REMARK  164  A    between atoms: _395  and  _396
REMARK  165  A    between atoms: _395  and  _398
REMARK  166  A    between atoms: _398  and  _399
REMARK  167  A    between atoms: _403  and  _404
REMARK  168  A    between atoms: _409  and  _411
REMARK  169  A    between atoms: _411  and  _412
REMARK  170  A    between atoms: _411  and  _414
REMARK  171  A    between atoms: _417  and  _419
REMARK  172  A    between atoms: _419  and  _420
REMARK  173  A    between atoms: _419  and  _422
REMARK  174  A    between atoms: _422  and  _423
REMARK  175  A    between atoms: _428  and  _430
REMARK  176  A    between atoms: _430  and  _431
REMARK  177  A    between atoms: _430  and  _433
REMARK  178  A    between atoms: _433  and  _434
REMARK  179  A    between atoms: _437  and  _439
REMARK  180  A    between atoms: _439  and  _440
REMARK  181  A    between atoms: _439  and  _442
REMARK  182  A    between atoms: _442  and  _443
REMARK                            x       y       z     vdW  Elec       q    Type
REMARK                         _______ _______ _______ _____ _____    ______ ____
ROOT
ATOM      1  O   HOH     1       3.038  26.953   6.359  0.00  0.00    +0.000 OA
ENDROOT
TORSDOF 0
REMARK  Name = ../refined-set-2016/7upj/7upj_pocket.pdb
REMARK  182 active torsions:
REMARK  status: ('A' for Active; 'I' for Inactive)
REMARK    1  A    between atoms: _1  and  _3
REMARK    2  A    between atoms: _3  and  _4
REMARK    3  A    between atoms: _3  and  _6
REMARK    4  A    between atoms: _6  and  _7
REMARK    5  A    between atoms: _7  and  _8
REMARK    6  A    between atoms: _8  and  _9
REMARK    7  A    between atoms: _18  and  _20
REMARK    8  A    between atoms: _20  and  _21
REMARK    9  A    between atoms: _20  and  _23
REMARK   10  A    between atoms: _23  and  _24
REMARK   11  A    between atoms: _27  and  _29
REMARK   12  A    between atoms: _29  and  _30
REMARK   13  A    between atoms: _29  and  _32
REMARK   14  A    between atoms: _32  and  _33
REMARK   15  A    between atoms: _36  and  _38
REMARK   16  A    between atoms: _38  and  _39
REMARK   17  A    between atoms: _38  and  _41
REMARK   18  A    between atoms: _41  and  _42
REMARK   19  A    between atoms: _45  and  _47
REMARK   20  A    between atoms: _47  and  _48
REMARK   21  A    between atoms: _47  and  _50
REMARK   22  A    between atoms: _50  and  _51
REMARK   23  A    between atoms: _54  and  _56
REMARK   24  A    between atoms: _56  and  _57
REMARK   25  A    between atoms: _59  and  _61
REMARK   26  A    between atoms: _61  and  _62
REMARK   27  A    between atoms: _65  and  _67
REMARK   28  A    between atoms: _67  and  _68
REMARK   29  A    between atoms: _67  and  _70
REMARK   30  A    between atoms: _70  and  _71
REMARK   31  A    between atoms: _74  and  _76
REMARK   32  A    between atoms: _76  and  _77
REMARK   33  A    between atoms: _76  and  _79
REMARK   34  A    between atoms: _79  and  _80
REMARK   35  A    between atoms: _83  and  _85
REMARK   36  A    between atoms: _85  and  _86
REMARK   37  A    between atoms: _85  and  _88
REMARK   38  A    between atoms: _88  and  _89
REMARK   39  A    between atoms: _92  and  _94
REMARK   40  A    between atoms: _94  and  _95
REMARK   41  A    between atoms: _94  and  _97
REMARK   42  A    between atoms: _100  and  _102
REMARK   43  A    between atoms: _102  and  _103
REMARK   44  A    between atoms: _102  and  _105
REMARK   45  A    between atoms: _105  and  _106
REMARK   46  A    between atoms: _106  and  _107
REMARK   47  A    between atoms: _107  and  _108
REMARK   48  A    between atoms: _108  and  _109
REMARK   49  A    between atoms: _113  and  _115
REMARK   50  A    between atoms: _115  and  _116
REMARK   51  A    between atoms: _115  and  _118
REMARK   52  A    between atoms: _118  and  _119
REMARK   53  A    between atoms: _119  and  _120
REMARK   54  A    between atoms: _122  and  _124
REMARK   55  A    between atoms: _124  and  _125
REMARK   56  A    between atoms: _124  and  _127
REMARK   57  A    between atoms: _127  and  _128
REMARK   58  A    between atoms: _131  and  _133
REMARK   59  A    between atoms: _133  and  _134
REMARK   60  A    between atoms: _136  and  _138
REMARK   61  A    between atoms: _138  and  _139
REMARK   62  A    between atoms: _141  and  _143
REMARK   63  A    between atoms: _143  and  _144
REMARK   64  A    between atoms: _143  and  _146
REMARK   65  A    between atoms: _146  and  _147
REMARK   66  A    between atoms: _150  and  _152
REMARK   67  A    between atoms: _152  and  _153
REMARK   68  A    between atoms: _155  and  _157
REMARK   69  A    between atoms: _157  and  _158
REMARK   70  A    between atoms: _160  and  _162
REMARK   71  A    between atoms: _162  and  _163
REMARK   72  A    between atoms: _162  and  _165
REMARK   73  A    between atoms: _165  and  _166
REMARK   74  A    between atoms: _172  and  _174
REMARK   75  A    between atoms: _174  and  _175
REMARK   76  A    between atoms: _174  and  _177
REMARK   77  A    between atoms: _177  and  _178
REMARK   78  A    between atoms: _181  and  _183
REMARK   79  A    between atoms: _183  and  _184
REMARK   80  A    between atoms: _183  and  _186
REMARK   81  A    between atoms: _186  and  _187
REMARK   82  A    between atoms: _190  and  _192
REMARK   83  A    between atoms: _192  and  _193
REMARK   84  A    between atoms: _192  and  _195
REMARK   85  A    between atoms: _195  and  _196
REMARK   86  A    between atoms: _200  and  _201
REMARK   87  A    between atoms: _206  and  _208
REMARK   88  A    between atoms: _208  and  _209
REMARK   89  A    between atoms: _208  and  _211
REMARK   90  A    between atoms: _214  and  _216
REMARK   91  A    between atoms: _216  and  _217
REMARK   92  A    between atoms: _216  and  _219
REMARK   93  A    between atoms: _219  and  _220
REMARK   94  A    between atoms: _225  and  _227
REMARK   95  A    between atoms: _227  and  _228
REMARK   96  A    between atoms: _227  and  _230
REMARK   97  A    between atoms: _230  and  _231
REMARK   98  A    between atoms: _234  and  _236
REMARK   99  A    between atoms: _236  and  _237
REMARK  100  A    between atoms: _236  and  _239
REMARK  101  A    between atoms: _239  and  _240
REMARK  102  A    between atoms: _243  and  _245
REMARK  103  A    between atoms: _245  and  _246
REMARK  104  A    between atoms: _248  and  _250
REMARK  105  A    between atoms: _250  and  _251
REMARK  106  A    between atoms: _250  and  _253
REMARK  107  A    between atoms: _253  and  _254
REMARK  108  A    between atoms: _254  and  _255
REMARK  109  A    between atoms: _255  and  _256
REMARK  110  A    between atoms: _265  and  _267
REMARK  111  A    between atoms: _267  and  _268
REMARK  112  A    between atoms: _267  and  _270
REMARK  113  A    between atoms: _270  and  _271
REMARK  114  A    between atoms: _271  and  _272
REMARK  115  A    between atoms: _272  and  _273
REMARK  116  A    between atoms: _282  and  _284
REMARK  117  A    between atoms: _284  and  _285
REMARK  118  A    between atoms: _284  and  _287
REMARK  119  A    between atoms: _287  and  _288
REMARK  120  A    between atoms: _291  and  _293
REMARK  121  A    between atoms: _293  and  _294
REMARK  122  A    between atoms: _293  and  _296
REMARK  123  A    between atoms: _296  and  _297
REMARK  124  A    between atoms: _300  and  _302
REMARK  125  A    between atoms: _302  and  _303
REMARK  126  A    between atoms: _302  and  _305
REMARK  127  A    between atoms: _305  and  _306
REMARK  128  A    between atoms: _309  and  _311
REMARK  129  A    between atoms: _311  and  _312
REMARK  130  A    between atoms: _311  and  _314
REMARK  131  A    between atoms: _314  and  _315
REMARK  132  A    between atoms: _318  and  _320
REMARK  133  A    between atoms: _320  and  _321
REMARK  134  A    between atoms: _323  and  _325
REMARK  135  A    between atoms: _325  and  _326
REMARK  136  A    between atoms: _329  and  _331
REMARK  137  A    between atoms: _331  and  _332
REMARK  138  A    between atoms: _331  and  _334
REMARK  139  A    between atoms: _334  and  _335
REMARK  140  A    between atoms: _338  and  _340
REMARK  141  A    between atoms: _340  and  _341
REMARK  142  A    between atoms: _340  and  _343
REMARK  143  A    between atoms: _343  and  _344
REMARK  144  A    between atoms: _347  and  _349
REMARK  145  A    between atoms: _349  and  _350
REMARK  146  A    between atoms: _349  and  _352
REMARK  147  A    between atoms: _355  and  _357
REMARK  148  A    between atoms: _357  and  _358
REMARK  149  A    between atoms: _357  and  _360
REMARK  150  A    between atoms: _360  and  _361
REMARK  151  A    between atoms: _364  and  _366
REMARK  152  A    between atoms: _366  and  _367
REMARK  153  A    between atoms: _369  and  _371
REMARK  154  A    between atoms: _371  and  _372
REMARK  155  A    between atoms: _374  and  _376
REMARK  156  A    between atoms: _376  and  _377
REMARK  157  A    between atoms: _376  and  _379
REMARK  158  A    between atoms: _379  and  _380
REMARK  159  A    between atoms: _383  and  _385
REMARK  160  A    between atoms: _385  and  _386
REMARK  161  A    between atoms: _388  and  _390
REMARK  162  A    between atoms: _390  and  _391
REMARK  163  A    between atoms: _393  and  _395
REMARK  164  A    between atoms: _395  and  _396
REMARK  165  A    between atoms: _395  and  _398
REMARK  166  A    between atoms: _398  and  _399
REMARK  167  A    between atoms: _403  and  _404
REMARK  168  A    between atoms: _409  and  _411
REMARK  169  A    between atoms: _411  and  _412
REMARK  170  A    between atoms: _411  and  _414
REMARK  171  A    between atoms: _417  and  _419
REMARK  172  A    between atoms: _419  and  _420
REMARK  173  A    between atoms: _419  and  _422
REMARK  174  A    between atoms: _422  and  _423
REMARK  175  A    between atoms: _428  and  _430
REMARK  176  A    between atoms: _430  and  _431
REMARK  177  A    between atoms: _430  and  _433
REMARK  178  A    between atoms: _433  and  _434
REMARK  179  A    between atoms: _437  and  _439
REMARK  180  A    between atoms: _439  and  _440
REMARK  181  A    between atoms: _439  and  _442
REMARK  182  A    between atoms: _442  and  _443
REMARK                            x       y       z     vdW  Elec       q    Type
REMARK                         _______ _______ _______ _____ _____    ______ ____
ROOT
ATOM      1  O   HOH     1       4.368  31.320   6.471  0.00  0.00    +0.000 OA
ENDROOT
TORSDOF 0
REMARK  Name = ../refined-set-2016/7upj/7upj_pocket.pdb
REMARK  182 active torsions:
REMARK  status: ('A' for Active; 'I' for Inactive)
REMARK    1  A    between atoms: _1  and  _3
REMARK    2  A    between atoms: _3  and  _4
REMARK    3  A    between atoms: _3  and  _6
REMARK    4  A    between atoms: _6  and  _7
REMARK    5  A    between atoms: _7  and  _8
REMARK    6  A    between atoms: _8  and  _9
REMARK    7  A    between atoms: _18  and  _20
REMARK    8  A    between atoms: _20  and  _21
REMARK    9  A    between atoms: _20  and  _23
REMARK   10  A    between atoms: _23  and  _24
REMARK   11  A    between atoms: _27  and  _29
REMARK   12  A    between atoms: _29  and  _30
REMARK   13  A    between atoms: _29  and  _32
REMARK   14  A    between atoms: _32  and  _33
REMARK   15  A    between atoms: _36  and  _38
REMARK   16  A    between atoms: _38  and  _39
REMARK   17  A    between atoms: _38  and  _41
REMARK   18  A    between atoms: _41  and  _42
REMARK   19  A    between atoms: _45  and  _47
REMARK   20  A    between atoms: _47  and  _48
REMARK   21  A    between atoms: _47  and  _50
REMARK   22  A    between atoms: _50  and  _51
REMARK   23  A    between atoms: _54  and  _56
REMARK   24  A    between atoms: _56  and  _57
REMARK   25  A    between atoms: _59  and  _61
REMARK   26  A    between atoms: _61  and  _62
REMARK   27  A    between atoms: _65  and  _67
REMARK   28  A    between atoms: _67  and  _68
REMARK   29  A    between atoms: _67  and  _70
REMARK   30  A    between atoms: _70  and  _71
REMARK   31  A    between atoms: _74  and  _76
REMARK   32  A    between atoms: _76  and  _77
REMARK   33  A    between atoms: _76  and  _79
REMARK   34  A    between atoms: _79  and  _80
REMARK   35  A    between atoms: _83  and  _85
REMARK   36  A    between atoms: _85  and  _86
REMARK   37  A    between atoms: _85  and  _88
REMARK   38  A    between atoms: _88  and  _89
REMARK   39  A    between atoms: _92  and  _94
REMARK   40  A    between atoms: _94  and  _95
REMARK   41  A    between atoms: _94  and  _97
REMARK   42  A    between atoms: _100  and  _102
REMARK   43  A    between atoms: _102  and  _103
REMARK   44  A    between atoms: _102  and  _105
REMARK   45  A    between atoms: _105  and  _106
REMARK   46  A    between atoms: _106  and  _107
REMARK   47  A    between atoms: _107  and  _108
REMARK   48  A    between atoms: _108  and  _109
REMARK   49  A    between atoms: _113  and  _115
REMARK   50  A    between atoms: _115  and  _116
REMARK   51  A    between atoms: _115  and  _118
REMARK   52  A    between atoms: _118  and  _119
REMARK   53  A    between atoms: _119  and  _120
REMARK   54  A    between atoms: _122  and  _124
REMARK   55  A    between atoms: _124  and  _125
REMARK   56  A    between atoms: _124  and  _127
REMARK   57  A    between atoms: _127  and  _128
REMARK   58  A    between atoms: _131  and  _133
REMARK   59  A    between atoms: _133  and  _134
REMARK   60  A    between atoms: _136  and  _138
REMARK   61  A    between atoms: _138  and  _139
REMARK   62  A    between atoms: _141  and  _143
REMARK   63  A    between atoms: _143  and  _144
REMARK   64  A    between atoms: _143  and  _146
REMARK   65  A    between atoms: _146  and  _147
REMARK   66  A    between atoms: _150  and  _152
REMARK   67  A    between atoms: _152  and  _153
REMARK   68  A    between atoms: _155  and  _157
REMARK   69  A    between atoms: _157  and  _158
REMARK   70  A    between atoms: _160  and  _162
REMARK   71  A    between atoms: _162  and  _163
REMARK   72  A    between atoms: _162  and  _165
REMARK   73  A    between atoms: _165  and  _166
REMARK   74  A    between atoms: _172  and  _174
REMARK   75  A    between atoms: _174  and  _175
REMARK   76  A    between atoms: _174  and  _177
REMARK   77  A    between atoms: _177  and  _178
REMARK   78  A    between atoms: _181  and  _183
REMARK   79  A    between atoms: _183  and  _184
REMARK   80  A    between atoms: _183  and  _186
REMARK   81  A    between atoms: _186  and  _187
REMARK   82  A    between atoms: _190  and  _192
REMARK   83  A    between atoms: _192  and  _193
REMARK   84  A    between atoms: _192  and  _195
REMARK   85  A    between atoms: _195  and  _196
REMARK   86  A    between atoms: _200  and  _201
REMARK   87  A    between atoms: _206  and  _208
REMARK   88  A    between atoms: _208  and  _209
REMARK   89  A    between atoms: _208  and  _211
REMARK   90  A    between atoms: _214  and  _216
REMARK   91  A    between atoms: _216  and  _217
REMARK   92  A    between atoms: _216  and  _219
REMARK   93  A    between atoms: _219  and  _220
REMARK   94  A    between atoms: _225  and  _227
REMARK   95  A    between atoms: _227  and  _228
REMARK   96  A    between atoms: _227  and  _230
REMARK   97  A    between atoms: _230  and  _231
REMARK   98  A    between atoms: _234  and  _236
REMARK   99  A    between atoms: _236  and  _237
REMARK  100  A    between atoms: _236  and  _239
REMARK  101  A    between atoms: _239  and  _240
REMARK  102  A    between atoms: _243  and  _245
REMARK  103  A    between atoms: _245  and  _246
REMARK  104  A    between atoms: _248  and  _250
REMARK  105  A    between atoms: _250  and  _251
REMARK  106  A    between atoms: _250  and  _253
REMARK  107  A    between atoms: _253  and  _254
REMARK  108  A    between atoms: _254  and  _255
REMARK  109  A    between atoms: _255  and  _256
REMARK  110  A    between atoms: _265  and  _267
REMARK  111  A    between atoms: _267  and  _268
REMARK  112  A    between atoms: _267  and  _270
REMARK  113  A    between atoms: _270  and  _271
REMARK  114  A    between atoms: _271  and  _272
REMARK  115  A    between atoms: _272  and  _273
REMARK  116  A    between atoms: _282  and  _284
REMARK  117  A    between atoms: _284  and  _285
REMARK  118  A    between atoms: _284  and  _287
REMARK  119  A    between atoms: _287  and  _288
REMARK  120  A    between atoms: _291  and  _293
REMARK  121  A    between atoms: _293  and  _294
REMARK  122  A    between atoms: _293  and  _296
REMARK  123  A    between atoms: _296  and  _297
REMARK  124  A    between atoms: _300  and  _302
REMARK  125  A    between atoms: _302  and  _303
REMARK  126  A    between atoms: _302  and  _305
REMARK  127  A    between atoms: _305  and  _306
REMARK  128  A    between atoms: _309  and  _311
REMARK  129  A    between atoms: _311  and  _312
REMARK  130  A    between atoms: _311  and  _314
REMARK  131  A    between atoms: _314  and  _315
REMARK  132  A    between atoms: _318  and  _320
REMARK  133  A    between atoms: _320  and  _321
REMARK  134  A    between atoms: _323  and  _325
REMARK  135  A    between atoms: _325  and  _326
REMARK  136  A    between atoms: _329  and  _331
REMARK  137  A    between atoms: _331  and  _332
REMARK  138  A    between atoms: _331  and  _334
REMARK  139  A    between atoms: _334  and  _335
REMARK  140  A    between atoms: _338  and  _340
REMARK  141  A    between atoms: _340  and  _341
REMARK  142  A    between atoms: _340  and  _343
REMARK  143  A    between atoms: _343  and  _344
REMARK  144  A    between atoms: _347  and  _349
REMARK  145  A    between atoms: _349  and  _350
REMARK  146  A    between atoms: _349  and  _352
REMARK  147  A    between atoms: _355  and  _357
REMARK  148  A    between atoms: _357  and  _358
REMARK  149  A    between atoms: _357  and  _360
REMARK  150  A    between atoms: _360  and  _361
REMARK  151  A    between atoms: _364  and  _366
REMARK  152  A    between atoms: _366  and  _367
REMARK  153  A    between atoms: _369  and  _371
REMARK  154  A    between atoms: _371  and  _372
REMARK  155  A    between atoms: _374  and  _376
REMARK  156  A    between atoms: _376  and  _377
REMARK  157  A    between atoms: _376  and  _379
REMARK  158  A    between atoms: _379  and  _380
REMARK  159  A    between atoms: _383  and  _385
REMARK  160  A    between atoms: _385  and  _386
REMARK  161  A    between atoms: _388  and  _390
REMARK  162  A    between atoms: _390  and  _391
REMARK  163  A    between atoms: _393  and  _395
REMARK  164  A    between atoms: _395  and  _396
REMARK  165  A    between atoms: _395  and  _398
REMARK  166  A    between atoms: _398  and  _399
REMARK  167  A    between atoms: _403  and  _404
REMARK  168  A    between atoms: _409  and  _411
REMARK  169  A    between atoms: _411  and  _412
REMARK  170  A    between atoms: _411  and  _414
REMARK  171  A    between atoms: _417  and  _419
REMARK  172  A    between atoms: _419  and  _420
REMARK  173  A    between atoms: _419  and  _422
REMARK  174  A    between atoms: _422  and  _423
REMARK  175  A    between atoms: _428  and  _430
REMARK  176  A    between atoms: _430  and  _431
REMARK  177  A    between atoms: _430  and  _433
REMARK  178  A    between atoms: _433  and  _434
REMARK  179  A    between atoms: _437  and  _439
REMARK  180  A    between atoms: _439  and  _440
REMARK  181  A    between atoms: _439  and  _442
REMARK  182  A    between atoms: _442  and  _443
REMARK                            x       y       z     vdW  Elec       q    Type
REMARK                         _______ _______ _______ _____ _____    ______ ____
ROOT
ATOM      1  O   HOH     1       8.663  37.247   5.692  0.00  0.00    +0.000 OA
ENDROOT
TORSDOF 0
REMARK  Name = ../refined-set-2016/7upj/7upj_pocket.pdb
REMARK  182 active torsions:
REMARK  status: ('A' for Active; 'I' for Inactive)
REMARK    1  A    between atoms: _1  and  _3
REMARK    2  A    between atoms: _3  and  _4
REMARK    3  A    between atoms: _3  and  _6
REMARK    4  A    between atoms: _6  and  _7
REMARK    5  A    between atoms: _7  and  _8
REMARK    6  A    between atoms: _8  and  _9
REMARK    7  A    between atoms: _18  and  _20
REMARK    8  A    between atoms: _20  and  _21
REMARK    9  A    between atoms: _20  and  _23
REMARK   10  A    between atoms: _23  and  _24
REMARK   11  A    between atoms: _27  and  _29
REMARK   12  A    between atoms: _29  and  _30
REMARK   13  A    between atoms: _29  and  _32
REMARK   14  A    between atoms: _32  and  _33
REMARK   15  A    between atoms: _36  and  _38
REMARK   16  A    between atoms: _38  and  _39
REMARK   17  A    between atoms: _38  and  _41
REMARK   18  A    between atoms: _41  and  _42
REMARK   19  A    between atoms: _45  and  _47
REMARK   20  A    between atoms: _47  and  _48
REMARK   21  A    between atoms: _47  and  _50
REMARK   22  A    between atoms: _50  and  _51
REMARK   23  A    between atoms: _54  and  _56
REMARK   24  A    between atoms: _56  and  _57
REMARK   25  A    between atoms: _59  and  _61
REMARK   26  A    between atoms: _61  and  _62
REMARK   27  A    between atoms: _65  and  _67
REMARK   28  A    between atoms: _67  and  _68
REMARK   29  A    between atoms: _67  and  _70
REMARK   30  A    between atoms: _70  and  _71
REMARK   31  A    between atoms: _74  and  _76
REMARK   32  A    between atoms: _76  and  _77
REMARK   33  A    between atoms: _76  and  _79
REMARK   34  A    between atoms: _79  and  _80
REMARK   35  A    between atoms: _83  and  _85
REMARK   36  A    between atoms: _85  and  _86
REMARK   37  A    between atoms: _85  and  _88
REMARK   38  A    between atoms: _88  and  _89
REMARK   39  A    between atoms: _92  and  _94
REMARK   40  A    between atoms: _94  and  _95
REMARK   41  A    between atoms: _94  and  _97
REMARK   42  A    between atoms: _100  and  _102
REMARK   43  A    between atoms: _102  and  _103
REMARK   44  A    between atoms: _102  and  _105
REMARK   45  A    between atoms: _105  and  _106
REMARK   46  A    between atoms: _106  and  _107
REMARK   47  A    between atoms: _107  and  _108
REMARK   48  A    between atoms: _108  and  _109
REMARK   49  A    between atoms: _113  and  _115
REMARK   50  A    between atoms: _115  and  _116
REMARK   51  A    between atoms: _115  and  _118
REMARK   52  A    between atoms: _118  and  _119
REMARK   53  A    between atoms: _119  and  _120
REMARK   54  A    between atoms: _122  and  _124
REMARK   55  A    between atoms: _124  and  _125
REMARK   56  A    between atoms: _124  and  _127
REMARK   57  A    between atoms: _127  and  _128
REMARK   58  A    between atoms: _131  and  _133
REMARK   59  A    between atoms: _133  and  _134
REMARK   60  A    between atoms: _136  and  _138
REMARK   61  A    between atoms: _138  and  _139
REMARK   62  A    between atoms: _141  and  _143
REMARK   63  A    between atoms: _143  and  _144
REMARK   64  A    between atoms: _143  and  _146
REMARK   65  A    between atoms: _146  and  _147
REMARK   66  A    between atoms: _150  and  _152
REMARK   67  A    between atoms: _152  and  _153
REMARK   68  A    between atoms: _155  and  _157
REMARK   69  A    between atoms: _157  and  _158
REMARK   70  A    between atoms: _160  and  _162
REMARK   71  A    between atoms: _162  and  _163
REMARK   72  A    between atoms: _162  and  _165
REMARK   73  A    between atoms: _165  and  _166
REMARK   74  A    between atoms: _172  and  _174
REMARK   75  A    between atoms: _174  and  _175
REMARK   76  A    between atoms: _174  and  _177
REMARK   77  A    between atoms: _177  and  _178
REMARK   78  A    between atoms: _181  and  _183
REMARK   79  A    between atoms: _183  and  _184
REMARK   80  A    between atoms: _183  and  _186
REMARK   81  A    between atoms: _186  and  _187
REMARK   82  A    between atoms: _190  and  _192
REMARK   83  A    between atoms: _192  and  _193
REMARK   84  A    between atoms: _192  and  _195
REMARK   85  A    between atoms: _195  and  _196
REMARK   86  A    between atoms: _200  and  _201
REMARK   87  A    between atoms: _206  and  _208
REMARK   88  A    between atoms: _208  and  _209
REMARK   89  A    between atoms: _208  and  _211
REMARK   90  A    between atoms: _214  and  _216
REMARK   91  A    between atoms: _216  and  _217
REMARK   92  A    between atoms: _216  and  _219
REMARK   93  A    between atoms: _219  and  _220
REMARK   94  A    between atoms: _225  and  _227
REMARK   95  A    between atoms: _227  and  _228
REMARK   96  A    between atoms: _227  and  _230
REMARK   97  A    between atoms: _230  and  _231
REMARK   98  A    between atoms: _234  and  _236
REMARK   99  A    between atoms: _236  and  _237
REMARK  100  A    between atoms: _236  and  _239
REMARK  101  A    between atoms: _239  and  _240
REMARK  102  A    between atoms: _243  and  _245
REMARK  103  A    between atoms: _245  and  _246
REMARK  104  A    between atoms: _248  and  _250
REMARK  105  A    between atoms: _250  and  _251
REMARK  106  A    between atoms: _250  and  _253
REMARK  107  A    between atoms: _253  and  _254
REMARK  108  A    between atoms: _254  and  _255
REMARK  109  A    between atoms: _255  and  _256
REMARK  110  A    between atoms: _265  and  _267
REMARK  111  A    between atoms: _267  and  _268
REMARK  112  A    between atoms: _267  and  _270
REMARK  113  A    between atoms: _270  and  _271
REMARK  114  A    between atoms: _271  and  _272
REMARK  115  A    between atoms: _272  and  _273
REMARK  116  A    between atoms: _282  and  _284
REMARK  117  A    between atoms: _284  and  _285
REMARK  118  A    between atoms: _284  and  _287
REMARK  119  A    between atoms: _287  and  _288
REMARK  120  A    between atoms: _291  and  _293
REMARK  121  A    between atoms: _293  and  _294
REMARK  122  A    between atoms: _293  and  _296
REMARK  123  A    between atoms: _296  and  _297
REMARK  124  A    between atoms: _300  and  _302
REMARK  125  A    between atoms: _302  and  _303
REMARK  126  A    between atoms: _302  and  _305
REMARK  127  A    between atoms: _305  and  _306
REMARK  128  A    between atoms: _309  and  _311
REMARK  129  A    between atoms: _311  and  _312
REMARK  130  A    between atoms: _311  and  _314
REMARK  131  A    between atoms: _314  and  _315
REMARK  132  A    between atoms: _318  and  _320
REMARK  133  A    between atoms: _320  and  _321
REMARK  134  A    between atoms: _323  and  _325
REMARK  135  A    between atoms: _325  and  _326
REMARK  136  A    between atoms: _329  and  _331
REMARK  137  A    between atoms: _331  and  _332
REMARK  138  A    between atoms: _331  and  _334
REMARK  139  A    between atoms: _334  and  _335
REMARK  140  A    between atoms: _338  and  _340
REMARK  141  A    between atoms: _340  and  _341
REMARK  142  A    between atoms: _340  and  _343
REMARK  143  A    between atoms: _343  and  _344
REMARK  144  A    between atoms: _347  and  _349
REMARK  145  A    between atoms: _349  and  _350
REMARK  146  A    between atoms: _349  and  _352
REMARK  147  A    between atoms: _355  and  _357
REMARK  148  A    between atoms: _357  and  _358
REMARK  149  A    between atoms: _357  and  _360
REMARK  150  A    between atoms: _360  and  _361
REMARK  151  A    between atoms: _364  and  _366
REMARK  152  A    between atoms: _366  and  _367
REMARK  153  A    between atoms: _369  and  _371
REMARK  154  A    between atoms: _371  and  _372
REMARK  155  A    between atoms: _374  and  _376
REMARK  156  A    between atoms: _376  and  _377
REMARK  157  A    between atoms: _376  and  _379
REMARK  158  A    between atoms: _379  and  _380
REMARK  159  A    between atoms: _383  and  _385
REMARK  160  A    between atoms: _385  and  _386
REMARK  161  A    between atoms: _388  and  _390
REMARK  162  A    between atoms: _390  and  _391
REMARK  163  A    between atoms: _393  and  _395
REMARK  164  A    between atoms: _395  and  _396
REMARK  165  A    between atoms: _395  and  _398
REMARK  166  A    between atoms: _398  and  _399
REMARK  167  A    between atoms: _403  and  _404
REMARK  168  A    between atoms: _409  and  _411
REMARK  169  A    between atoms: _411  and  _412
REMARK  170  A    between atoms: _411  and  _414
REMARK  171  A    between atoms: _417  and  _419
REMARK  172  A    between atoms: _419  and  _420
REMARK  173  A    between atoms: _419  and  _422
REMARK  174  A    between atoms: _422  and  _423
REMARK  175  A    between atoms: _428  and  _430
REMARK  176  A    between atoms: _430  and  _431
REMARK  177  A    between atoms: _430  and  _433
REMARK  178  A    between atoms: _433  and  _434
REMARK  179  A    between atoms: _437  and  _439
REMARK  180  A    between atoms: _439  and  _440
REMARK  181  A    between atoms: _439  and  _442
REMARK  182  A    between atoms: _442  and  _443
REMARK                            x       y       z     vdW  Elec       q    Type
REMARK                         _______ _______ _______ _____ _____    ______ ____
ROOT
ATOM      1  O   HOH     1      10.982  32.296   1.671  0.00  0.00    +0.000 OA
ENDROOT
TORSDOF 0
REMARK  Name = ../refined-set-2016/7upj/7upj_pocket.pdb
REMARK  182 active torsions:
REMARK  status: ('A' for Active; 'I' for Inactive)
REMARK    1  A    between atoms: _1  and  _3
REMARK    2  A    between atoms: _3  and  _4
REMARK    3  A    between atoms: _3  and  _6
REMARK    4  A    between atoms: _6  and  _7
REMARK    5  A    between atoms: _7  and  _8
REMARK    6  A    between atoms: _8  and  _9
REMARK    7  A    between atoms: _18  and  _20
REMARK    8  A    between atoms: _20  and  _21
REMARK    9  A    between atoms: _20  and  _23
REMARK   10  A    between atoms: _23  and  _24
REMARK   11  A    between atoms: _27  and  _29
REMARK   12  A    between atoms: _29  and  _30
REMARK   13  A    between atoms: _29  and  _32
REMARK   14  A    between atoms: _32  and  _33
REMARK   15  A    between atoms: _36  and  _38
REMARK   16  A    between atoms: _38  and  _39
REMARK   17  A    between atoms: _38  and  _41
REMARK   18  A    between atoms: _41  and  _42
REMARK   19  A    between atoms: _45  and  _47
REMARK   20  A    between atoms: _47  and  _48
REMARK   21  A    between atoms: _47  and  _50
REMARK   22  A    between atoms: _50  and  _51
REMARK   23  A    between atoms: _54  and  _56
REMARK   24  A    between atoms: _56  and  _57
REMARK   25  A    between atoms: _59  and  _61
REMARK   26  A    between atoms: _61  and  _62
REMARK   27  A    between atoms: _65  and  _67
REMARK   28  A    between atoms: _67  and  _68
REMARK   29  A    between atoms: _67  and  _70
REMARK   30  A    between atoms: _70  and  _71
REMARK   31  A    between atoms: _74  and  _76
REMARK   32  A    between atoms: _76  and  _77
REMARK   33  A    between atoms: _76  and  _79
REMARK   34  A    between atoms: _79  and  _80
REMARK   35  A    between atoms: _83  and  _85
REMARK   36  A    between atoms: _85  and  _86
REMARK   37  A    between atoms: _85  and  _88
REMARK   38  A    between atoms: _88  and  _89
REMARK   39  A    between atoms: _92  and  _94
REMARK   40  A    between atoms: _94  and  _95
REMARK   41  A    between atoms: _94  and  _97
REMARK   42  A    between atoms: _100  and  _102
REMARK   43  A    between atoms: _102  and  _103
REMARK   44  A    between atoms: _102  and  _105
REMARK   45  A    between atoms: _105  and  _106
REMARK   46  A    between atoms: _106  and  _107
REMARK   47  A    between atoms: _107  and  _108
REMARK   48  A    between atoms: _108  and  _109
REMARK   49  A    between atoms: _113  and  _115
REMARK   50  A    between atoms: _115  and  _116
REMARK   51  A    between atoms: _115  and  _118
REMARK   52  A    between atoms: _118  and  _119
REMARK   53  A    between atoms: _119  and  _120
REMARK   54  A    between atoms: _122  and  _124
REMARK   55  A    between atoms: _124  and  _125
REMARK   56  A    between atoms: _124  and  _127
REMARK   57  A    between atoms: _127  and  _128
REMARK   58  A    between atoms: _131  and  _133
REMARK   59  A    between atoms: _133  and  _134
REMARK   60  A    between atoms: _136  and  _138
REMARK   61  A    between atoms: _138  and  _139
REMARK   62  A    between atoms: _141  and  _143
REMARK   63  A    between atoms: _143  and  _144
REMARK   64  A    between atoms: _143  and  _146
REMARK   65  A    between atoms: _146  and  _147
REMARK   66  A    between atoms: _150  and  _152
REMARK   67  A    between atoms: _152  and  _153
REMARK   68  A    between atoms: _155  and  _157
REMARK   69  A    between atoms: _157  and  _158
REMARK   70  A    between atoms: _160  and  _162
REMARK   71  A    between atoms: _162  and  _163
REMARK   72  A    between atoms: _162  and  _165
REMARK   73  A    between atoms: _165  and  _166
REMARK   74  A    between atoms: _172  and  _174
REMARK   75  A    between atoms: _174  and  _175
REMARK   76  A    between atoms: _174  and  _177
REMARK   77  A    between atoms: _177  and  _178
REMARK   78  A    between atoms: _181  and  _183
REMARK   79  A    between atoms: _183  and  _184
REMARK   80  A    between atoms: _183  and  _186
REMARK   81  A    between atoms: _186  and  _187
REMARK   82  A    between atoms: _190  and  _192
REMARK   83  A    between atoms: _192  and  _193
REMARK   84  A    between atoms: _192  and  _195
REMARK   85  A    between atoms: _195  and  _196
REMARK   86  A    between atoms: _200  and  _201
REMARK   87  A    between atoms: _206  and  _208
REMARK   88  A    between atoms: _208  and  _209
REMARK   89  A    between atoms: _208  and  _211
REMARK   90  A    between atoms: _214  and  _216
REMARK   91  A    between atoms: _216  and  _217
REMARK   92  A    between atoms: _216  and  _219
REMARK   93  A    between atoms: _219  and  _220
REMARK   94  A    between atoms: _225  and  _227
REMARK   95  A    between atoms: _227  and  _228
REMARK   96  A    between atoms: _227  and  _230
REMARK   97  A    between atoms: _230  and  _231
REMARK   98  A    between atoms: _234  and  _236
REMARK   99  A    between atoms: _236  and  _237
REMARK  100  A    between atoms: _236  and  _239
REMARK  101  A    between atoms: _239  and  _240
REMARK  102  A    between atoms: _243  and  _245
REMARK  103  A    between atoms: _245  and  _246
REMARK  104  A    between atoms: _248  and  _250
REMARK  105  A    between atoms: _250  and  _251
REMARK  106  A    between atoms: _250  and  _253
REMARK  107  A    between atoms: _253  and  _254
REMARK  108  A    between atoms: _254  and  _255
REMARK  109  A    between atoms: _255  and  _256
REMARK  110  A    between atoms: _265  and  _267
REMARK  111  A    between atoms: _267  and  _268
REMARK  112  A    between atoms: _267  and  _270
REMARK  113  A    between atoms: _270  and  _271
REMARK  114  A    between atoms: _271  and  _272
REMARK  115  A    between atoms: _272  and  _273
REMARK  116  A    between atoms: _282  and  _284
REMARK  117  A    between atoms: _284  and  _285
REMARK  118  A    between atoms: _284  and  _287
REMARK  119  A    between atoms: _287  and  _288
REMARK  120  A    between atoms: _291  and  _293
REMARK  121  A    between atoms: _293  and  _294
REMARK  122  A    between atoms: _293  and  _296
REMARK  123  A    between atoms: _296  and  _297
REMARK  124  A    between atoms: _300  and  _302
REMARK  125  A    between atoms: _302  and  _303
REMARK  126  A    between atoms: _302  and  _305
REMARK  127  A    between atoms: _305  and  _306
REMARK  128  A    between atoms: _309  and  _311
REMARK  129  A    between atoms: _311  and  _312
REMARK  130  A    between atoms: _311  and  _314
REMARK  131  A    between atoms: _314  and  _315
REMARK  132  A    between atoms: _318  and  _320
REMARK  133  A    between atoms: _320  and  _321
REMARK  134  A    between atoms: _323  and  _325
REMARK  135  A    between atoms: _325  and  _326
REMARK  136  A    between atoms: _329  and  _331
REMARK  137  A    between atoms: _331  and  _332
REMARK  138  A    between atoms: _331  and  _334
REMARK  139  A    between atoms: _334  and  _335
REMARK  140  A    between atoms: _338  and  _340
REMARK  141  A    between atoms: _340  and  _341
REMARK  142  A    between atoms: _340  and  _343
REMARK  143  A    between atoms: _343  and  _344
REMARK  144  A    between atoms: _347  and  _349
REMARK  145  A    between atoms: _349  and  _350
REMARK  146  A    between atoms: _349  and  _352
REMARK  147  A    between atoms: _355  and  _357
REMARK  148  A    between atoms: _357  and  _358
REMARK  149  A    between atoms: _357  and  _360
REMARK  150  A    between atoms: _360  and  _361
REMARK  151  A    between atoms: _364  and  _366
REMARK  152  A    between atoms: _366  and  _367
REMARK  153  A    between atoms: _369  and  _371
REMARK  154  A    between atoms: _371  and  _372
REMARK  155  A    between atoms: _374  and  _376
REMARK  156  A    between atoms: _376  and  _377
REMARK  157  A    between atoms: _376  and  _379
REMARK  158  A    between atoms: _379  and  _380
REMARK  159  A    between atoms: _383  and  _385
REMARK  160  A    between atoms: _385  and  _386
REMARK  161  A    between atoms: _388  and  _390
REMARK  162  A    between atoms: _390  and  _391
REMARK  163  A    between atoms: _393  and  _395
REMARK  164  A    between atoms: _395  and  _396
REMARK  165  A    between atoms: _395  and  _398
REMARK  166  A    between atoms: _398  and  _399
REMARK  167  A    between atoms: _403  and  _404
REMARK  168  A    between atoms: _409  and  _411
REMARK  169  A    between atoms: _411  and  _412
REMARK  170  A    between atoms: _411  and  _414
REMARK  171  A    between atoms: _417  and  _419
REMARK  172  A    between atoms: _419  and  _420
REMARK  173  A    between atoms: _419  and  _422
REMARK  174  A    between atoms: _422  and  _423
REMARK  175  A    between atoms: _428  and  _430
REMARK  176  A    between atoms: _430  and  _431
REMARK  177  A    between atoms: _430  and  _433
REMARK  178  A    between atoms: _433  and  _434
REMARK  179  A    between atoms: _437  and  _439
REMARK  180  A    between atoms: _439  and  _440
REMARK  181  A    between atoms: _439  and  _442
REMARK  182  A    between atoms: _442  and  _443
REMARK                            x       y       z     vdW  Elec       q    Type
REMARK                         _______ _______ _______ _____ _____    ______ ____
ROOT
ATOM      1  O   HOH     1      23.192  23.515  13.657  0.00  0.00    +0.000 OA
ENDROOT
TORSDOF 0
REMARK  Name = ../refined-set-2016/7upj/7upj_pocket.pdb
REMARK  182 active torsions:
REMARK  status: ('A' for Active; 'I' for Inactive)
REMARK    1  A    between atoms: _1  and  _3
REMARK    2  A    between atoms: _3  and  _4
REMARK    3  A    between atoms: _3  and  _6
REMARK    4  A    between atoms: _6  and  _7
REMARK    5  A    between atoms: _7  and  _8
REMARK    6  A    between atoms: _8  and  _9
REMARK    7  A    between atoms: _18  and  _20
REMARK    8  A    between atoms: _20  and  _21
REMARK    9  A    between atoms: _20  and  _23
REMARK   10  A    between atoms: _23  and  _24
REMARK   11  A    between atoms: _27  and  _29
REMARK   12  A    between atoms: _29  and  _30
REMARK   13  A    between atoms: _29  and  _32
REMARK   14  A    between atoms: _32  and  _33
REMARK   15  A    between atoms: _36  and  _38
REMARK   16  A    between atoms: _38  and  _39
REMARK   17  A    between atoms: _38  and  _41
REMARK   18  A    between atoms: _41  and  _42
REMARK   19  A    between atoms: _45  and  _47
REMARK   20  A    between atoms: _47  and  _48
REMARK   21  A    between atoms: _47  and  _50
REMARK   22  A    between atoms: _50  and  _51
REMARK   23  A    between atoms: _54  and  _56
REMARK   24  A    between atoms: _56  and  _57
REMARK   25  A    between atoms: _59  and  _61
REMARK   26  A    between atoms: _61  and  _62
REMARK   27  A    between atoms: _65  and  _67
REMARK   28  A    between atoms: _67  and  _68
REMARK   29  A    between atoms: _67  and  _70
REMARK   30  A    between atoms: _70  and  _71
REMARK   31  A    between atoms: _74  and  _76
REMARK   32  A    between atoms: _76  and  _77
REMARK   33  A    between atoms: _76  and  _79
REMARK   34  A    between atoms: _79  and  _80
REMARK   35  A    between atoms: _83  and  _85
REMARK   36  A    between atoms: _85  and  _86
REMARK   37  A    between atoms: _85  and  _88
REMARK   38  A    between atoms: _88  and  _89
REMARK   39  A    between atoms: _92  and  _94
REMARK   40  A    between atoms: _94  and  _95
REMARK   41  A    between atoms: _94  and  _97
REMARK   42  A    between atoms: _100  and  _102
REMARK   43  A    between atoms: _102  and  _103
REMARK   44  A    between atoms: _102  and  _105
REMARK   45  A    between atoms: _105  and  _106
REMARK   46  A    between atoms: _106  and  _107
REMARK   47  A    between atoms: _107  and  _108
REMARK   48  A    between atoms: _108  and  _109
REMARK   49  A    between atoms: _113  and  _115
REMARK   50  A    between atoms: _115  and  _116
REMARK   51  A    between atoms: _115  and  _118
REMARK   52  A    between atoms: _118  and  _119
REMARK   53  A    between atoms: _119  and  _120
REMARK   54  A    between atoms: _122  and  _124
REMARK   55  A    between atoms: _124  and  _125
REMARK   56  A    between atoms: _124  and  _127
REMARK   57  A    between atoms: _127  and  _128
REMARK   58  A    between atoms: _131  and  _133
REMARK   59  A    between atoms: _133  and  _134
REMARK   60  A    between atoms: _136  and  _138
REMARK   61  A    between atoms: _138  and  _139
REMARK   62  A    between atoms: _141  and  _143
REMARK   63  A    between atoms: _143  and  _144
REMARK   64  A    between atoms: _143  and  _146
REMARK   65  A    between atoms: _146  and  _147
REMARK   66  A    between atoms: _150  and  _152
REMARK   67  A    between atoms: _152  and  _153
REMARK   68  A    between atoms: _155  and  _157
REMARK   69  A    between atoms: _157  and  _158
REMARK   70  A    between atoms: _160  and  _162
REMARK   71  A    between atoms: _162  and  _163
REMARK   72  A    between atoms: _162  and  _165
REMARK   73  A    between atoms: _165  and  _166
REMARK   74  A    between atoms: _172  and  _174
REMARK   75  A    between atoms: _174  and  _175
REMARK   76  A    between atoms: _174  and  _177
REMARK   77  A    between atoms: _177  and  _178
REMARK   78  A    between atoms: _181  and  _183
REMARK   79  A    between atoms: _183  and  _184
REMARK   80  A    between atoms: _183  and  _186
REMARK   81  A    between atoms: _186  and  _187
REMARK   82  A    between atoms: _190  and  _192
REMARK   83  A    between atoms: _192  and  _193
REMARK   84  A    between atoms: _192  and  _195
REMARK   85  A    between atoms: _195  and  _196
REMARK   86  A    between atoms: _200  and  _201
REMARK   87  A    between atoms: _206  and  _208
REMARK   88  A    between atoms: _208  and  _209
REMARK   89  A    between atoms: _208  and  _211
REMARK   90  A    between atoms: _214  and  _216
REMARK   91  A    between atoms: _216  and  _217
REMARK   92  A    between atoms: _216  and  _219
REMARK   93  A    between atoms: _219  and  _220
REMARK   94  A    between atoms: _225  and  _227
REMARK   95  A    between atoms: _227  and  _228
REMARK   96  A    between atoms: _227  and  _230
REMARK   97  A    between atoms: _230  and  _231
REMARK   98  A    between atoms: _234  and  _236
REMARK   99  A    between atoms: _236  and  _237
REMARK  100  A    between atoms: _236  and  _239
REMARK  101  A    between atoms: _239  and  _240
REMARK  102  A    between atoms: _243  and  _245
REMARK  103  A    between atoms: _245  and  _246
REMARK  104  A    between atoms: _248  and  _250
REMARK  105  A    between atoms: _250  and  _251
REMARK  106  A    between atoms: _250  and  _253
REMARK  107  A    between atoms: _253  and  _254
REMARK  108  A    between atoms: _254  and  _255
REMARK  109  A    between atoms: _255  and  _256
REMARK  110  A    between atoms: _265  and  _267
REMARK  111  A    between atoms: _267  and  _268
REMARK  112  A    between atoms: _267  and  _270
REMARK  113  A    between atoms: _270  and  _271
REMARK  114  A    between atoms: _271  and  _272
REMARK  115  A    between atoms: _272  and  _273
REMARK  116  A    between atoms: _282  and  _284
REMARK  117  A    between atoms: _284  and  _285
REMARK  118  A    between atoms: _284  and  _287
REMARK  119  A    between atoms: _287  and  _288
REMARK  120  A    between atoms: _291  and  _293
REMARK  121  A    between atoms: _293  and  _294
REMARK  122  A    between atoms: _293  and  _296
REMARK  123  A    between atoms: _296  and  _297
REMARK  124  A    between atoms: _300  and  _302
REMARK  125  A    between atoms: _302  and  _303
REMARK  126  A    between atoms: _302  and  _305
REMARK  127  A    between atoms: _305  and  _306
REMARK  128  A    between atoms: _309  and  _311
REMARK  129  A    between atoms: _311  and  _312
REMARK  130  A    between atoms: _311  and  _314
REMARK  131  A    between atoms: _314  and  _315
REMARK  132  A    between atoms: _318  and  _320
REMARK  133  A    between atoms: _320  and  _321
REMARK  134  A    between atoms: _323  and  _325
REMARK  135  A    between atoms: _325  and  _326
REMARK  136  A    between atoms: _329  and  _331
REMARK  137  A    between atoms: _331  and  _332
REMARK  138  A    between atoms: _331  and  _334
REMARK  139  A    between atoms: _334  and  _335
REMARK  140  A    between atoms: _338  and  _340
REMARK  141  A    between atoms: _340  and  _341
REMARK  142  A    between atoms: _340  and  _343
REMARK  143  A    between atoms: _343  and  _344
REMARK  144  A    between atoms: _347  and  _349
REMARK  145  A    between atoms: _349  and  _350
REMARK  146  A    between atoms: _349  and  _352
REMARK  147  A    between atoms: _355  and  _357
REMARK  148  A    between atoms: _357  and  _358
REMARK  149  A    between atoms: _357  and  _360
REMARK  150  A    between atoms: _360  and  _361
REMARK  151  A    between atoms: _364  and  _366
REMARK  152  A    between atoms: _366  and  _367
REMARK  153  A    between atoms: _369  and  _371
REMARK  154  A    between atoms: _371  and  _372
REMARK  155  A    between atoms: _374  and  _376
REMARK  156  A    between atoms: _376  and  _377
REMARK  157  A    between atoms: _376  and  _379
REMARK  158  A    between atoms: _379  and  _380
REMARK  159  A    between atoms: _383  and  _385
REMARK  160  A    between atoms: _385  and  _386
REMARK  161  A    between atoms: _388  and  _390
REMARK  162  A    between atoms: _390  and  _391
REMARK  163  A    between atoms: _393  and  _395
REMARK  164  A    between atoms: _395  and  _396
REMARK  165  A    between atoms: _395  and  _398
REMARK  166  A    between atoms: _398  and  _399
REMARK  167  A    between atoms: _403  and  _404
REMARK  168  A    between atoms: _409  and  _411
REMARK  169  A    between atoms: _411  and  _412
REMARK  170  A    between atoms: _411  and  _414
REMARK  171  A    between atoms: _417  and  _419
REMARK  172  A    between atoms: _419  and  _420
REMARK  173  A    between atoms: _419  and  _422
REMARK  174  A    between atoms: _422  and  _423
REMARK  175  A    between atoms: _428  and  _430
REMARK  176  A    between atoms: _430  and  _431
REMARK  177  A    between atoms: _430  and  _433
REMARK  178  A    between atoms: _433  and  _434
REMARK  179  A    between atoms: _437  and  _439
REMARK  180  A    between atoms: _439  and  _440
REMARK  181  A    between atoms: _439  and  _442
REMARK  182  A    between atoms: _442  and  _443
REMARK                            x       y       z     vdW  Elec       q    Type
REMARK                         _______ _______ _______ _____ _____    ______ ____
ROOT
ATOM      1  O   HOH     1      20.145  20.532   9.764  0.00  0.00    +0.000 OA
ENDROOT
TORSDOF 0
REMARK  Name = ../refined-set-2016/7upj/7upj_pocket.pdb
REMARK  182 active torsions:
REMARK  status: ('A' for Active; 'I' for Inactive)
REMARK    1  A    between atoms: _1  and  _3
REMARK    2  A    between atoms: _3  and  _4
REMARK    3  A    between atoms: _3  and  _6
REMARK    4  A    between atoms: _6  and  _7
REMARK    5  A    between atoms: _7  and  _8
REMARK    6  A    between atoms: _8  and  _9
REMARK    7  A    between atoms: _18  and  _20
REMARK    8  A    between atoms: _20  and  _21
REMARK    9  A    between atoms: _20  and  _23
REMARK   10  A    between atoms: _23  and  _24
REMARK   11  A    between atoms: _27  and  _29
REMARK   12  A    between atoms: _29  and  _30
REMARK   13  A    between atoms: _29  and  _32
REMARK   14  A    between atoms: _32  and  _33
REMARK   15  A    between atoms: _36  and  _38
REMARK   16  A    between atoms: _38  and  _39
REMARK   17  A    between atoms: _38  and  _41
REMARK   18  A    between atoms: _41  and  _42
REMARK   19  A    between atoms: _45  and  _47
REMARK   20  A    between atoms: _47  and  _48
REMARK   21  A    between atoms: _47  and  _50
REMARK   22  A    between atoms: _50  and  _51
REMARK   23  A    between atoms: _54  and  _56
REMARK   24  A    between atoms: _56  and  _57
REMARK   25  A    between atoms: _59  and  _61
REMARK   26  A    between atoms: _61  and  _62
REMARK   27  A    between atoms: _65  and  _67
REMARK   28  A    between atoms: _67  and  _68
REMARK   29  A    between atoms: _67  and  _70
REMARK   30  A    between atoms: _70  and  _71
REMARK   31  A    between atoms: _74  and  _76
REMARK   32  A    between atoms: _76  and  _77
REMARK   33  A    between atoms: _76  and  _79
REMARK   34  A    between atoms: _79  and  _80
REMARK   35  A    between atoms: _83  and  _85
REMARK   36  A    between atoms: _85  and  _86
REMARK   37  A    between atoms: _85  and  _88
REMARK   38  A    between atoms: _88  and  _89
REMARK   39  A    between atoms: _92  and  _94
REMARK   40  A    between atoms: _94  and  _95
REMARK   41  A    between atoms: _94  and  _97
REMARK   42  A    between atoms: _100  and  _102
REMARK   43  A    between atoms: _102  and  _103
REMARK   44  A    between atoms: _102  and  _105
REMARK   45  A    between atoms: _105  and  _106
REMARK   46  A    between atoms: _106  and  _107
REMARK   47  A    between atoms: _107  and  _108
REMARK   48  A    between atoms: _108  and  _109
REMARK   49  A    between atoms: _113  and  _115
REMARK   50  A    between atoms: _115  and  _116
REMARK   51  A    between atoms: _115  and  _118
REMARK   52  A    between atoms: _118  and  _119
REMARK   53  A    between atoms: _119  and  _120
REMARK   54  A    between atoms: _122  and  _124
REMARK   55  A    between atoms: _124  and  _125
REMARK   56  A    between atoms: _124  and  _127
REMARK   57  A    between atoms: _127  and  _128
REMARK   58  A    between atoms: _131  and  _133
REMARK   59  A    between atoms: _133  and  _134
REMARK   60  A    between atoms: _136  and  _138
REMARK   61  A    between atoms: _138  and  _139
REMARK   62  A    between atoms: _141  and  _143
REMARK   63  A    between atoms: _143  and  _144
REMARK   64  A    between atoms: _143  and  _146
REMARK   65  A    between atoms: _146  and  _147
REMARK   66  A    between atoms: _150  and  _152
REMARK   67  A    between atoms: _152  and  _153
REMARK   68  A    between atoms: _155  and  _157
REMARK   69  A    between atoms: _157  and  _158
REMARK   70  A    between atoms: _160  and  _162
REMARK   71  A    between atoms: _162  and  _163
REMARK   72  A    between atoms: _162  and  _165
REMARK   73  A    between atoms: _165  and  _166
REMARK   74  A    between atoms: _172  and  _174
REMARK   75  A    between atoms: _174  and  _175
REMARK   76  A    between atoms: _174  and  _177
REMARK   77  A    between atoms: _177  and  _178
REMARK   78  A    between atoms: _181  and  _183
REMARK   79  A    between atoms: _183  and  _184
REMARK   80  A    between atoms: _183  and  _186
REMARK   81  A    between atoms: _186  and  _187
REMARK   82  A    between atoms: _190  and  _192
REMARK   83  A    between atoms: _192  and  _193
REMARK   84  A    between atoms: _192  and  _195
REMARK   85  A    between atoms: _195  and  _196
REMARK   86  A    between atoms: _200  and  _201
REMARK   87  A    between atoms: _206  and  _208
REMARK   88  A    between atoms: _208  and  _209
REMARK   89  A    between atoms: _208  and  _211
REMARK   90  A    between atoms: _214  and  _216
REMARK   91  A    between atoms: _216  and  _217
REMARK   92  A    between atoms: _216  and  _219
REMARK   93  A    between atoms: _219  and  _220
REMARK   94  A    between atoms: _225  and  _227
REMARK   95  A    between atoms: _227  and  _228
REMARK   96  A    between atoms: _227  and  _230
REMARK   97  A    between atoms: _230  and  _231
REMARK   98  A    between atoms: _234  and  _236
REMARK   99  A    between atoms: _236  and  _237
REMARK  100  A    between atoms: _236  and  _239
REMARK  101  A    between atoms: _239  and  _240
REMARK  102  A    between atoms: _243  and  _245
REMARK  103  A    between atoms: _245  and  _246
REMARK  104  A    between atoms: _248  and  _250
REMARK  105  A    between atoms: _250  and  _251
REMARK  106  A    between atoms: _250  and  _253
REMARK  107  A    between atoms: _253  and  _254
REMARK  108  A    between atoms: _254  and  _255
REMARK  109  A    between atoms: _255  and  _256
REMARK  110  A    between atoms: _265  and  _267
REMARK  111  A    between atoms: _267  and  _268
REMARK  112  A    between atoms: _267  and  _270
REMARK  113  A    between atoms: _270  and  _271
REMARK  114  A    between atoms: _271  and  _272
REMARK  115  A    between atoms: _272  and  _273
REMARK  116  A    between atoms: _282  and  _284
REMARK  117  A    between atoms: _284  and  _285
REMARK  118  A    between atoms: _284  and  _287
REMARK  119  A    between atoms: _287  and  _288
REMARK  120  A    between atoms: _291  and  _293
REMARK  121  A    between atoms: _293  and  _294
REMARK  122  A    between atoms: _293  and  _296
REMARK  123  A    between atoms: _296  and  _297
REMARK  124  A    between atoms: _300  and  _302
REMARK  125  A    between atoms: _302  and  _303
REMARK  126  A    between atoms: _302  and  _305
REMARK  127  A    between atoms: _305  and  _306
REMARK  128  A    between atoms: _309  and  _311
REMARK  129  A    between atoms: _311  and  _312
REMARK  130  A    between atoms: _311  and  _314
REMARK  131  A    between atoms: _314  and  _315
REMARK  132  A    between atoms: _318  and  _320
REMARK  133  A    between atoms: _320  and  _321
REMARK  134  A    between atoms: _323  and  _325
REMARK  135  A    between atoms: _325  and  _326
REMARK  136  A    between atoms: _329  and  _331
REMARK  137  A    between atoms: _331  and  _332
REMARK  138  A    between atoms: _331  and  _334
REMARK  139  A    between atoms: _334  and  _335
REMARK  140  A    between atoms: _338  and  _340
REMARK  141  A    between atoms: _340  and  _341
REMARK  142  A    between atoms: _340  and  _343
REMARK  143  A    between atoms: _343  and  _344
REMARK  144  A    between atoms: _347  and  _349
REMARK  145  A    between atoms: _349  and  _350
REMARK  146  A    between atoms: _349  and  _352
REMARK  147  A    between atoms: _355  and  _357
REMARK  148  A    between atoms: _357  and  _358
REMARK  149  A    between atoms: _357  and  _360
REMARK  150  A    between atoms: _360  and  _361
REMARK  151  A    between atoms: _364  and  _366
REMARK  152  A    between atoms: _366  and  _367
REMARK  153  A    between atoms: _369  and  _371
REMARK  154  A    between atoms: _371  and  _372
REMARK  155  A    between atoms: _374  and  _376
REMARK  156  A    between atoms: _376  and  _377
REMARK  157  A    between atoms: _376  and  _379
REMARK  158  A    between atoms: _379  and  _380
REMARK  159  A    between atoms: _383  and  _385
REMARK  160  A    between atoms: _385  and  _386
REMARK  161  A    between atoms: _388  and  _390
REMARK  162  A    between atoms: _390  and  _391
REMARK  163  A    between atoms: _393  and  _395
REMARK  164  A    between atoms: _395  and  _396
REMARK  165  A    between atoms: _395  and  _398
REMARK  166  A    between atoms: _398  and  _399
REMARK  167  A    between atoms: _403  and  _404
REMARK  168  A    between atoms: _409  and  _411
REMARK  169  A    between atoms: _411  and  _412
REMARK  170  A    between atoms: _411  and  _414
REMARK  171  A    between atoms: _417  and  _419
REMARK  172  A    between atoms: _419  and  _420
REMARK  173  A    between atoms: _419  and  _422
REMARK  174  A    between atoms: _422  and  _423
REMARK  175  A    between atoms: _428  and  _430
REMARK  176  A    between atoms: _430  and  _431
REMARK  177  A    between atoms: _430  and  _433
REMARK  178  A    between atoms: _433  and  _434
REMARK  179  A    between atoms: _437  and  _439
REMARK  180  A    between atoms: _439  and  _440
REMARK  181  A    between atoms: _439  and  _442
REMARK  182  A    between atoms: _442  and  _443
REMARK                            x       y       z     vdW  Elec       q    Type
REMARK                         _______ _______ _______ _____ _____    ______ ____
ROOT
ATOM      1  O   HOH     1      19.921  18.313   8.672  0.00  0.00    +0.000 OA
ENDROOT
TORSDOF 0
REMARK  Name = ../refined-set-2016/7upj/7upj_pocket.pdb
REMARK  182 active torsions:
REMARK  status: ('A' for Active; 'I' for Inactive)
REMARK    1  A    between atoms: _1  and  _3
REMARK    2  A    between atoms: _3  and  _4
REMARK    3  A    between atoms: _3  and  _6
REMARK    4  A    between atoms: _6  and  _7
REMARK    5  A    between atoms: _7  and  _8
REMARK    6  A    between atoms: _8  and  _9
REMARK    7  A    between atoms: _18  and  _20
REMARK    8  A    between atoms: _20  and  _21
REMARK    9  A    between atoms: _20  and  _23
REMARK   10  A    between atoms: _23  and  _24
REMARK   11  A    between atoms: _27  and  _29
REMARK   12  A    between atoms: _29  and  _30
REMARK   13  A    between atoms: _29  and  _32
REMARK   14  A    between atoms: _32  and  _33
REMARK   15  A    between atoms: _36  and  _38
REMARK   16  A    between atoms: _38  and  _39
REMARK   17  A    between atoms: _38  and  _41
REMARK   18  A    between atoms: _41  and  _42
REMARK   19  A    between atoms: _45  and  _47
REMARK   20  A    between atoms: _47  and  _48
REMARK   21  A    between atoms: _47  and  _50
REMARK   22  A    between atoms: _50  and  _51
REMARK   23  A    between atoms: _54  and  _56
REMARK   24  A    between atoms: _56  and  _57
REMARK   25  A    between atoms: _59  and  _61
REMARK   26  A    between atoms: _61  and  _62
REMARK   27  A    between atoms: _65  and  _67
REMARK   28  A    between atoms: _67  and  _68
REMARK   29  A    between atoms: _67  and  _70
REMARK   30  A    between atoms: _70  and  _71
REMARK   31  A    between atoms: _74  and  _76
REMARK   32  A    between atoms: _76  and  _77
REMARK   33  A    between atoms: _76  and  _79
REMARK   34  A    between atoms: _79  and  _80
REMARK   35  A    between atoms: _83  and  _85
REMARK   36  A    between atoms: _85  and  _86
REMARK   37  A    between atoms: _85  and  _88
REMARK   38  A    between atoms: _88  and  _89
REMARK   39  A    between atoms: _92  and  _94
REMARK   40  A    between atoms: _94  and  _95
REMARK   41  A    between atoms: _94  and  _97
REMARK   42  A    between atoms: _100  and  _102
REMARK   43  A    between atoms: _102  and  _103
REMARK   44  A    between atoms: _102  and  _105
REMARK   45  A    between atoms: _105  and  _106
REMARK   46  A    between atoms: _106  and  _107
REMARK   47  A    between atoms: _107  and  _108
REMARK   48  A    between atoms: _108  and  _109
REMARK   49  A    between atoms: _113  and  _115
REMARK   50  A    between atoms: _115  and  _116
REMARK   51  A    between atoms: _115  and  _118
REMARK   52  A    between atoms: _118  and  _119
REMARK   53  A    between atoms: _119  and  _120
REMARK   54  A    between atoms: _122  and  _124
REMARK   55  A    between atoms: _124  and  _125
REMARK   56  A    between atoms: _124  and  _127
REMARK   57  A    between atoms: _127  and  _128
REMARK   58  A    between atoms: _131  and  _133
REMARK   59  A    between atoms: _133  and  _134
REMARK   60  A    between atoms: _136  and  _138
REMARK   61  A    between atoms: _138  and  _139
REMARK   62  A    between atoms: _141  and  _143
REMARK   63  A    between atoms: _143  and  _144
REMARK   64  A    between atoms: _143  and  _146
REMARK   65  A    between atoms: _146  and  _147
REMARK   66  A    between atoms: _150  and  _152
REMARK   67  A    between atoms: _152  and  _153
REMARK   68  A    between atoms: _155  and  _157
REMARK   69  A    between atoms: _157  and  _158
REMARK   70  A    between atoms: _160  and  _162
REMARK   71  A    between atoms: _162  and  _163
REMARK   72  A    between atoms: _162  and  _165
REMARK   73  A    between atoms: _165  and  _166
REMARK   74  A    between atoms: _172  and  _174
REMARK   75  A    between atoms: _174  and  _175
REMARK   76  A    between atoms: _174  and  _177
REMARK   77  A    between atoms: _177  and  _178
REMARK   78  A    between atoms: _181  and  _183
REMARK   79  A    between atoms: _183  and  _184
REMARK   80  A    between atoms: _183  and  _186
REMARK   81  A    between atoms: _186  and  _187
REMARK   82  A    between atoms: _190  and  _192
REMARK   83  A    between atoms: _192  and  _193
REMARK   84  A    between atoms: _192  and  _195
REMARK   85  A    between atoms: _195  and  _196
REMARK   86  A    between atoms: _200  and  _201
REMARK   87  A    between atoms: _206  and  _208
REMARK   88  A    between atoms: _208  and  _209
REMARK   89  A    between atoms: _208  and  _211
REMARK   90  A    between atoms: _214  and  _216
REMARK   91  A    between atoms: _216  and  _217
REMARK   92  A    between atoms: _216  and  _219
REMARK   93  A    between atoms: _219  and  _220
REMARK   94  A    between atoms: _225  and  _227
REMARK   95  A    between atoms: _227  and  _228
REMARK   96  A    between atoms: _227  and  _230
REMARK   97  A    between atoms: _230  and  _231
REMARK   98  A    between atoms: _234  and  _236
REMARK   99  A    between atoms: _236  and  _237
REMARK  100  A    between atoms: _236  and  _239
REMARK  101  A    between atoms: _239  and  _240
REMARK  102  A    between atoms: _243  and  _245
REMARK  103  A    between atoms: _245  and  _246
REMARK  104  A    between atoms: _248  and  _250
REMARK  105  A    between atoms: _250  and  _251
REMARK  106  A    between atoms: _250  and  _253
REMARK  107  A    between atoms: _253  and  _254
REMARK  108  A    between atoms: _254  and  _255
REMARK  109  A    between atoms: _255  and  _256
REMARK  110  A    between atoms: _265  and  _267
REMARK  111  A    between atoms: _267  and  _268
REMARK  112  A    between atoms: _267  and  _270
REMARK  113  A    between atoms: _270  and  _271
REMARK  114  A    between atoms: _271  and  _272
REMARK  115  A    between atoms: _272  and  _273
REMARK  116  A    between atoms: _282  and  _284
REMARK  117  A    between atoms: _284  and  _285
REMARK  118  A    between atoms: _284  and  _287
REMARK  119  A    between atoms: _287  and  _288
REMARK  120  A    between atoms: _291  and  _293
REMARK  121  A    between atoms: _293  and  _294
REMARK  122  A    between atoms: _293  and  _296
REMARK  123  A    between atoms: _296  and  _297
REMARK  124  A    between atoms: _300  and  _302
REMARK  125  A    between atoms: _302  and  _303
REMARK  126  A    between atoms: _302  and  _305
REMARK  127  A    between atoms: _305  and  _306
REMARK  128  A    between atoms: _309  and  _311
REMARK  129  A    between atoms: _311  and  _312
REMARK  130  A    between atoms: _311  and  _314
REMARK  131  A    between atoms: _314  and  _315
REMARK  132  A    between atoms: _318  and  _320
REMARK  133  A    between atoms: _320  and  _321
REMARK  134  A    between atoms: _323  and  _325
REMARK  135  A    between atoms: _325  and  _326
REMARK  136  A    between atoms: _329  and  _331
REMARK  137  A    between atoms: _331  and  _332
REMARK  138  A    between atoms: _331  and  _334
REMARK  139  A    between atoms: _334  and  _335
REMARK  140  A    between atoms: _338  and  _340
REMARK  141  A    between atoms: _340  and  _341
REMARK  142  A    between atoms: _340  and  _343
REMARK  143  A    between atoms: _343  and  _344
REMARK  144  A    between atoms: _347  and  _349
REMARK  145  A    between atoms: _349  and  _350
REMARK  146  A    between atoms: _349  and  _352
REMARK  147  A    between atoms: _355  and  _357
REMARK  148  A    between atoms: _357  and  _358
REMARK  149  A    between atoms: _357  and  _360
REMARK  150  A    between atoms: _360  and  _361
REMARK  151  A    between atoms: _364  and  _366
REMARK  152  A    between atoms: _366  and  _367
REMARK  153  A    between atoms: _369  and  _371
REMARK  154  A    between atoms: _371  and  _372
REMARK  155  A    between atoms: _374  and  _376
REMARK  156  A    between atoms: _376  and  _377
REMARK  157  A    between atoms: _376  and  _379
REMARK  158  A    between atoms: _379  and  _380
REMARK  159  A    between atoms: _383  and  _385
REMARK  160  A    between atoms: _385  and  _386
REMARK  161  A    between atoms: _388  and  _390
REMARK  162  A    between atoms: _390  and  _391
REMARK  163  A    between atoms: _393  and  _395
REMARK  164  A    between atoms: _395  and  _396
REMARK  165  A    between atoms: _395  and  _398
REMARK  166  A    between atoms: _398  and  _399
REMARK  167  A    between atoms: _403  and  _404
REMARK  168  A    between atoms: _409  and  _411
REMARK  169  A    between atoms: _411  and  _412
REMARK  170  A    between atoms: _411  and  _414
REMARK  171  A    between atoms: _417  and  _419
REMARK  172  A    between atoms: _419  and  _420
REMARK  173  A    between atoms: _419  and  _422
REMARK  174  A    between atoms: _422  and  _423
REMARK  175  A    between atoms: _428  and  _430
REMARK  176  A    between atoms: _430  and  _431
REMARK  177  A    between atoms: _430  and  _433
REMARK  178  A    between atoms: _433  and  _434
REMARK  179  A    between atoms: _437  and  _439
REMARK  180  A    between atoms: _439  and  _440
REMARK  181  A    between atoms: _439  and  _442
REMARK  182  A    between atoms: _442  and  _443
REMARK                            x       y       z     vdW  Elec       q    Type
REMARK                         _______ _______ _______ _____ _____    ______ ____
ROOT
ATOM      1  O   HOH     1       1.428  28.759   8.141  0.00  0.00    +0.000 OA
ENDROOT
TORSDOF 0
REMARK  Name = ../refined-set-2016/7upj/7upj_pocket.pdb
REMARK  182 active torsions:
REMARK  status: ('A' for Active; 'I' for Inactive)
REMARK    1  A    between atoms: _1  and  _3
REMARK    2  A    between atoms: _3  and  _4
REMARK    3  A    between atoms: _3  and  _6
REMARK    4  A    between atoms: _6  and  _7
REMARK    5  A    between atoms: _7  and  _8
REMARK    6  A    between atoms: _8  and  _9
REMARK    7  A    between atoms: _18  and  _20
REMARK    8  A    between atoms: _20  and  _21
REMARK    9  A    between atoms: _20  and  _23
REMARK   10  A    between atoms: _23  and  _24
REMARK   11  A    between atoms: _27  and  _29
REMARK   12  A    between atoms: _29  and  _30
REMARK   13  A    between atoms: _29  and  _32
REMARK   14  A    between atoms: _32  and  _33
REMARK   15  A    between atoms: _36  and  _38
REMARK   16  A    between atoms: _38  and  _39
REMARK   17  A    between atoms: _38  and  _41
REMARK   18  A    between atoms: _41  and  _42
REMARK   19  A    between atoms: _45  and  _47
REMARK   20  A    between atoms: _47  and  _48
REMARK   21  A    between atoms: _47  and  _50
REMARK   22  A    between atoms: _50  and  _51
REMARK   23  A    between atoms: _54  and  _56
REMARK   24  A    between atoms: _56  and  _57
REMARK   25  A    between atoms: _59  and  _61
REMARK   26  A    between atoms: _61  and  _62
REMARK   27  A    between atoms: _65  and  _67
REMARK   28  A    between atoms: _67  and  _68
REMARK   29  A    between atoms: _67  and  _70
REMARK   30  A    between atoms: _70  and  _71
REMARK   31  A    between atoms: _74  and  _76
REMARK   32  A    between atoms: _76  and  _77
REMARK   33  A    between atoms: _76  and  _79
REMARK   34  A    between atoms: _79  and  _80
REMARK   35  A    between atoms: _83  and  _85
REMARK   36  A    between atoms: _85  and  _86
REMARK   37  A    between atoms: _85  and  _88
REMARK   38  A    between atoms: _88  and  _89
REMARK   39  A    between atoms: _92  and  _94
REMARK   40  A    between atoms: _94  and  _95
REMARK   41  A    between atoms: _94  and  _97
REMARK   42  A    between atoms: _100  and  _102
REMARK   43  A    between atoms: _102  and  _103
REMARK   44  A    between atoms: _102  and  _105
REMARK   45  A    between atoms: _105  and  _106
REMARK   46  A    between atoms: _106  and  _107
REMARK   47  A    between atoms: _107  and  _108
REMARK   48  A    between atoms: _108  and  _109
REMARK   49  A    between atoms: _113  and  _115
REMARK   50  A    between atoms: _115  and  _116
REMARK   51  A    between atoms: _115  and  _118
REMARK   52  A    between atoms: _118  and  _119
REMARK   53  A    between atoms: _119  and  _120
REMARK   54  A    between atoms: _122  and  _124
REMARK   55  A    between atoms: _124  and  _125
REMARK   56  A    between atoms: _124  and  _127
REMARK   57  A    between atoms: _127  and  _128
REMARK   58  A    between atoms: _131  and  _133
REMARK   59  A    between atoms: _133  and  _134
REMARK   60  A    between atoms: _136  and  _138
REMARK   61  A    between atoms: _138  and  _139
REMARK   62  A    between atoms: _141  and  _143
REMARK   63  A    between atoms: _143  and  _144
REMARK   64  A    between atoms: _143  and  _146
REMARK   65  A    between atoms: _146  and  _147
REMARK   66  A    between atoms: _150  and  _152
REMARK   67  A    between atoms: _152  and  _153
REMARK   68  A    between atoms: _155  and  _157
REMARK   69  A    between atoms: _157  and  _158
REMARK   70  A    between atoms: _160  and  _162
REMARK   71  A    between atoms: _162  and  _163
REMARK   72  A    between atoms: _162  and  _165
REMARK   73  A    between atoms: _165  and  _166
REMARK   74  A    between atoms: _172  and  _174
REMARK   75  A    between atoms: _174  and  _175
REMARK   76  A    between atoms: _174  and  _177
REMARK   77  A    between atoms: _177  and  _178
REMARK   78  A    between atoms: _181  and  _183
REMARK   79  A    between atoms: _183  and  _184
REMARK   80  A    between atoms: _183  and  _186
REMARK   81  A    between atoms: _186  and  _187
REMARK   82  A    between atoms: _190  and  _192
REMARK   83  A    between atoms: _192  and  _193
REMARK   84  A    between atoms: _192  and  _195
REMARK   85  A    between atoms: _195  and  _196
REMARK   86  A    between atoms: _200  and  _201
REMARK   87  A    between atoms: _206  and  _208
REMARK   88  A    between atoms: _208  and  _209
REMARK   89  A    between atoms: _208  and  _211
REMARK   90  A    between atoms: _214  and  _216
REMARK   91  A    between atoms: _216  and  _217
REMARK   92  A    between atoms: _216  and  _219
REMARK   93  A    between atoms: _219  and  _220
REMARK   94  A    between atoms: _225  and  _227
REMARK   95  A    between atoms: _227  and  _228
REMARK   96  A    between atoms: _227  and  _230
REMARK   97  A    between atoms: _230  and  _231
REMARK   98  A    between atoms: _234  and  _236
REMARK   99  A    between atoms: _236  and  _237
REMARK  100  A    between atoms: _236  and  _239
REMARK  101  A    between atoms: _239  and  _240
REMARK  102  A    between atoms: _243  and  _245
REMARK  103  A    between atoms: _245  and  _246
REMARK  104  A    between atoms: _248  and  _250
REMARK  105  A    between atoms: _250  and  _251
REMARK  106  A    between atoms: _250  and  _253
REMARK  107  A    between atoms: _253  and  _254
REMARK  108  A    between atoms: _254  and  _255
REMARK  109  A    between atoms: _255  and  _256
REMARK  110  A    between atoms: _265  and  _267
REMARK  111  A    between atoms: _267  and  _268
REMARK  112  A    between atoms: _267  and  _270
REMARK  113  A    between atoms: _270  and  _271
REMARK  114  A    between atoms: _271  and  _272
REMARK  115  A    between atoms: _272  and  _273
REMARK  116  A    between atoms: _282  and  _284
REMARK  117  A    between atoms: _284  and  _285
REMARK  118  A    between atoms: _284  and  _287
REMARK  119  A    between atoms: _287  and  _288
REMARK  120  A    between atoms: _291  and  _293
REMARK  121  A    between atoms: _293  and  _294
REMARK  122  A    between atoms: _293  and  _296
REMARK  123  A    between atoms: _296  and  _297
REMARK  124  A    between atoms: _300  and  _302
REMARK  125  A    between atoms: _302  and  _303
REMARK  126  A    between atoms: _302  and  _305
REMARK  127  A    between atoms: _305  and  _306
REMARK  128  A    between atoms: _309  and  _311
REMARK  129  A    between atoms: _311  and  _312
REMARK  130  A    between atoms: _311  and  _314
REMARK  131  A    between atoms: _314  and  _315
REMARK  132  A    between atoms: _318  and  _320
REMARK  133  A    between atoms: _320  and  _321
REMARK  134  A    between atoms: _323  and  _325
REMARK  135  A    between atoms: _325  and  _326
REMARK  136  A    between atoms: _329  and  _331
REMARK  137  A    between atoms: _331  and  _332
REMARK  138  A    between atoms: _331  and  _334
REMARK  139  A    between atoms: _334  and  _335
REMARK  140  A    between atoms: _338  and  _340
REMARK  141  A    between atoms: _340  and  _341
REMARK  142  A    between atoms: _340  and  _343
REMARK  143  A    between atoms: _343  and  _344
REMARK  144  A    between atoms: _347  and  _349
REMARK  145  A    between atoms: _349  and  _350
REMARK  146  A    between atoms: _349  and  _352
REMARK  147  A    between atoms: _355  and  _357
REMARK  148  A    between atoms: _357  and  _358
REMARK  149  A    between atoms: _357  and  _360
REMARK  150  A    between atoms: _360  and  _361
REMARK  151  A    between atoms: _364  and  _366
REMARK  152  A    between atoms: _366  and  _367
REMARK  153  A    between atoms: _369  and  _371
REMARK  154  A    between atoms: _371  and  _372
REMARK  155  A    between atoms: _374  and  _376
REMARK  156  A    between atoms: _376  and  _377
REMARK  157  A    between atoms: _376  and  _379
REMARK  158  A    between atoms: _379  and  _380
REMARK  159  A    between atoms: _383  and  _385
REMARK  160  A    between atoms: _385  and  _386
REMARK  161  A    between atoms: _388  and  _390
REMARK  162  A    between atoms: _390  and  _391
REMARK  163  A    between atoms: _393  and  _395
REMARK  164  A    between atoms: _395  and  _396
REMARK  165  A    between atoms: _395  and  _398
REMARK  166  A    between atoms: _398  and  _399
REMARK  167  A    between atoms: _403  and  _404
REMARK  168  A    between atoms: _409  and  _411
REMARK  169  A    between atoms: _411  and  _412
REMARK  170  A    between atoms: _411  and  _414
REMARK  171  A    between atoms: _417  and  _419
REMARK  172  A    between atoms: _419  and  _420
REMARK  173  A    between atoms: _419  and  _422
REMARK  174  A    between atoms: _422  and  _423
REMARK  175  A    between atoms: _428  and  _430
REMARK  176  A    between atoms: _430  and  _431
REMARK  177  A    between atoms: _430  and  _433
REMARK  178  A    between atoms: _433  and  _434
REMARK  179  A    between atoms: _437  and  _439
REMARK  180  A    between atoms: _439  and  _440
REMARK  181  A    between atoms: _439  and  _442
REMARK  182  A    between atoms: _442  and  _443
REMARK                            x       y       z     vdW  Elec       q    Type
REMARK                         _______ _______ _______ _____ _____    ______ ____
ROOT
ATOM      1  O   HOH     1       5.133  35.400   7.348  0.00  0.00    +0.000 OA
ENDROOT
TORSDOF 0
REMARK  Name = ../refined-set-2016/7upj/7upj_pocket.pdb
REMARK  182 active torsions:
REMARK  status: ('A' for Active; 'I' for Inactive)
REMARK    1  A    between atoms: _1  and  _3
REMARK    2  A    between atoms: _3  and  _4
REMARK    3  A    between atoms: _3  and  _6
REMARK    4  A    between atoms: _6  and  _7
REMARK    5  A    between atoms: _7  and  _8
REMARK    6  A    between atoms: _8  and  _9
REMARK    7  A    between atoms: _18  and  _20
REMARK    8  A    between atoms: _20  and  _21
REMARK    9  A    between atoms: _20  and  _23
REMARK   10  A    between atoms: _23  and  _24
REMARK   11  A    between atoms: _27  and  _29
REMARK   12  A    between atoms: _29  and  _30
REMARK   13  A    between atoms: _29  and  _32
REMARK   14  A    between atoms: _32  and  _33
REMARK   15  A    between atoms: _36  and  _38
REMARK   16  A    between atoms: _38  and  _39
REMARK   17  A    between atoms: _38  and  _41
REMARK   18  A    between atoms: _41  and  _42
REMARK   19  A    between atoms: _45  and  _47
REMARK   20  A    between atoms: _47  and  _48
REMARK   21  A    between atoms: _47  and  _50
REMARK   22  A    between atoms: _50  and  _51
REMARK   23  A    between atoms: _54  and  _56
REMARK   24  A    between atoms: _56  and  _57
REMARK   25  A    between atoms: _59  and  _61
REMARK   26  A    between atoms: _61  and  _62
REMARK   27  A    between atoms: _65  and  _67
REMARK   28  A    between atoms: _67  and  _68
REMARK   29  A    between atoms: _67  and  _70
REMARK   30  A    between atoms: _70  and  _71
REMARK   31  A    between atoms: _74  and  _76
REMARK   32  A    between atoms: _76  and  _77
REMARK   33  A    between atoms: _76  and  _79
REMARK   34  A    between atoms: _79  and  _80
REMARK   35  A    between atoms: _83  and  _85
REMARK   36  A    between atoms: _85  and  _86
REMARK   37  A    between atoms: _85  and  _88
REMARK   38  A    between atoms: _88  and  _89
REMARK   39  A    between atoms: _92  and  _94
REMARK   40  A    between atoms: _94  and  _95
REMARK   41  A    between atoms: _94  and  _97
REMARK   42  A    between atoms: _100  and  _102
REMARK   43  A    between atoms: _102  and  _103
REMARK   44  A    between atoms: _102  and  _105
REMARK   45  A    between atoms: _105  and  _106
REMARK   46  A    between atoms: _106  and  _107
REMARK   47  A    between atoms: _107  and  _108
REMARK   48  A    between atoms: _108  and  _109
REMARK   49  A    between atoms: _113  and  _115
REMARK   50  A    between atoms: _115  and  _116
REMARK   51  A    between atoms: _115  and  _118
REMARK   52  A    between atoms: _118  and  _119
REMARK   53  A    between atoms: _119  and  _120
REMARK   54  A    between atoms: _122  and  _124
REMARK   55  A    between atoms: _124  and  _125
REMARK   56  A    between atoms: _124  and  _127
REMARK   57  A    between atoms: _127  and  _128
REMARK   58  A    between atoms: _131  and  _133
REMARK   59  A    between atoms: _133  and  _134
REMARK   60  A    between atoms: _136  and  _138
REMARK   61  A    between atoms: _138  and  _139
REMARK   62  A    between atoms: _141  and  _143
REMARK   63  A    between atoms: _143  and  _144
REMARK   64  A    between atoms: _143  and  _146
REMARK   65  A    between atoms: _146  and  _147
REMARK   66  A    between atoms: _150  and  _152
REMARK   67  A    between atoms: _152  and  _153
REMARK   68  A    between atoms: _155  and  _157
REMARK   69  A    between atoms: _157  and  _158
REMARK   70  A    between atoms: _160  and  _162
REMARK   71  A    between atoms: _162  and  _163
REMARK   72  A    between atoms: _162  and  _165
REMARK   73  A    between atoms: _165  and  _166
REMARK   74  A    between atoms: _172  and  _174
REMARK   75  A    between atoms: _174  and  _175
REMARK   76  A    between atoms: _174  and  _177
REMARK   77  A    between atoms: _177  and  _178
REMARK   78  A    between atoms: _181  and  _183
REMARK   79  A    between atoms: _183  and  _184
REMARK   80  A    between atoms: _183  and  _186
REMARK   81  A    between atoms: _186  and  _187
REMARK   82  A    between atoms: _190  and  _192
REMARK   83  A    between atoms: _192  and  _193
REMARK   84  A    between atoms: _192  and  _195
REMARK   85  A    between atoms: _195  and  _196
REMARK   86  A    between atoms: _200  and  _201
REMARK   87  A    between atoms: _206  and  _208
REMARK   88  A    between atoms: _208  and  _209
REMARK   89  A    between atoms: _208  and  _211
REMARK   90  A    between atoms: _214  and  _216
REMARK   91  A    between atoms: _216  and  _217
REMARK   92  A    between atoms: _216  and  _219
REMARK   93  A    between atoms: _219  and  _220
REMARK   94  A    between atoms: _225  and  _227
REMARK   95  A    between atoms: _227  and  _228
REMARK   96  A    between atoms: _227  and  _230
REMARK   97  A    between atoms: _230  and  _231
REMARK   98  A    between atoms: _234  and  _236
REMARK   99  A    between atoms: _236  and  _237
REMARK  100  A    between atoms: _236  and  _239
REMARK  101  A    between atoms: _239  and  _240
REMARK  102  A    between atoms: _243  and  _245
REMARK  103  A    between atoms: _245  and  _246
REMARK  104  A    between atoms: _248  and  _250
REMARK  105  A    between atoms: _250  and  _251
REMARK  106  A    between atoms: _250  and  _253
REMARK  107  A    between atoms: _253  and  _254
REMARK  108  A    between atoms: _254  and  _255
REMARK  109  A    between atoms: _255  and  _256
REMARK  110  A    between atoms: _265  and  _267
REMARK  111  A    between atoms: _267  and  _268
REMARK  112  A    between atoms: _267  and  _270
REMARK  113  A    between atoms: _270  and  _271
REMARK  114  A    between atoms: _271  and  _272
REMARK  115  A    between atoms: _272  and  _273
REMARK  116  A    between atoms: _282  and  _284
REMARK  117  A    between atoms: _284  and  _285
REMARK  118  A    between atoms: _284  and  _287
REMARK  119  A    between atoms: _287  and  _288
REMARK  120  A    between atoms: _291  and  _293
REMARK  121  A    between atoms: _293  and  _294
REMARK  122  A    between atoms: _293  and  _296
REMARK  123  A    between atoms: _296  and  _297
REMARK  124  A    between atoms: _300  and  _302
REMARK  125  A    between atoms: _302  and  _303
REMARK  126  A    between atoms: _302  and  _305
REMARK  127  A    between atoms: _305  and  _306
REMARK  128  A    between atoms: _309  and  _311
REMARK  129  A    between atoms: _311  and  _312
REMARK  130  A    between atoms: _311  and  _314
REMARK  131  A    between atoms: _314  and  _315
REMARK  132  A    between atoms: _318  and  _320
REMARK  133  A    between atoms: _320  and  _321
REMARK  134  A    between atoms: _323  and  _325
REMARK  135  A    between atoms: _325  and  _326
REMARK  136  A    between atoms: _329  and  _331
REMARK  137  A    between atoms: _331  and  _332
REMARK  138  A    between atoms: _331  and  _334
REMARK  139  A    between atoms: _334  and  _335
REMARK  140  A    between atoms: _338  and  _340
REMARK  141  A    between atoms: _340  and  _341
REMARK  142  A    between atoms: _340  and  _343
REMARK  143  A    between atoms: _343  and  _344
REMARK  144  A    between atoms: _347  and  _349
REMARK  145  A    between atoms: _349  and  _350
REMARK  146  A    between atoms: _349  and  _352
REMARK  147  A    between atoms: _355  and  _357
REMARK  148  A    between atoms: _357  and  _358
REMARK  149  A    between atoms: _357  and  _360
REMARK  150  A    between atoms: _360  and  _361
REMARK  151  A    between atoms: _364  and  _366
REMARK  152  A    between atoms: _366  and  _367
REMARK  153  A    between atoms: _369  and  _371
REMARK  154  A    between atoms: _371  and  _372
REMARK  155  A    between atoms: _374  and  _376
REMARK  156  A    between atoms: _376  and  _377
REMARK  157  A    between atoms: _376  and  _379
REMARK  158  A    between atoms: _379  and  _380
REMARK  159  A    between atoms: _383  and  _385
REMARK  160  A    between atoms: _385  and  _386
REMARK  161  A    between atoms: _388  and  _390
REMARK  162  A    between atoms: _390  and  _391
REMARK  163  A    between atoms: _393  and  _395
REMARK  164  A    between atoms: _395  and  _396
REMARK  165  A    between atoms: _395  and  _398
REMARK  166  A    between atoms: _398  and  _399
REMARK  167  A    between atoms: _403  and  _404
REMARK  168  A    between atoms: _409  and  _411
REMARK  169  A    between atoms: _411  and  _412
REMARK  170  A    between atoms: _411  and  _414
REMARK  171  A    between atoms: _417  and  _419
REMARK  172  A    between atoms: _419  and  _420
REMARK  173  A    between atoms: _419  and  _422
REMARK  174  A    between atoms: _422  and  _423
REMARK  175  A    between atoms: _428  and  _430
REMARK  176  A    between atoms: _430  and  _431
REMARK  177  A    between atoms: _430  and  _433
REMARK  178  A    between atoms: _433  and  _434
REMARK  179  A    between atoms: _437  and  _439
REMARK  180  A    between atoms: _439  and  _440
REMARK  181  A    between atoms: _439  and  _442
REMARK  182  A    between atoms: _442  and  _443
REMARK                            x       y       z     vdW  Elec       q    Type
REMARK                         _______ _______ _______ _____ _____    ______ ____
ROOT
ATOM      1  O   HOH     1      19.961  20.995   6.401  0.00  0.00    +0.000 OA
ENDROOT
TORSDOF 0
REMARK  Name = ../refined-set-2016/7upj/7upj_pocket.pdb
REMARK  182 active torsions:
REMARK  status: ('A' for Active; 'I' for Inactive)
REMARK    1  A    between atoms: _1  and  _3
REMARK    2  A    between atoms: _3  and  _4
REMARK    3  A    between atoms: _3  and  _6
REMARK    4  A    between atoms: _6  and  _7
REMARK    5  A    between atoms: _7  and  _8
REMARK    6  A    between atoms: _8  and  _9
REMARK    7  A    between atoms: _18  and  _20
REMARK    8  A    between atoms: _20  and  _21
REMARK    9  A    between atoms: _20  and  _23
REMARK   10  A    between atoms: _23  and  _24
REMARK   11  A    between atoms: _27  and  _29
REMARK   12  A    between atoms: _29  and  _30
REMARK   13  A    between atoms: _29  and  _32
REMARK   14  A    between atoms: _32  and  _33
REMARK   15  A    between atoms: _36  and  _38
REMARK   16  A    between atoms: _38  and  _39
REMARK   17  A    between atoms: _38  and  _41
REMARK   18  A    between atoms: _41  and  _42
REMARK   19  A    between atoms: _45  and  _47
REMARK   20  A    between atoms: _47  and  _48
REMARK   21  A    between atoms: _47  and  _50
REMARK   22  A    between atoms: _50  and  _51
REMARK   23  A    between atoms: _54  and  _56
REMARK   24  A    between atoms: _56  and  _57
REMARK   25  A    between atoms: _59  and  _61
REMARK   26  A    between atoms: _61  and  _62
REMARK   27  A    between atoms: _65  and  _67
REMARK   28  A    between atoms: _67  and  _68
REMARK   29  A    between atoms: _67  and  _70
REMARK   30  A    between atoms: _70  and  _71
REMARK   31  A    between atoms: _74  and  _76
REMARK   32  A    between atoms: _76  and  _77
REMARK   33  A    between atoms: _76  and  _79
REMARK   34  A    between atoms: _79  and  _80
REMARK   35  A    between atoms: _83  and  _85
REMARK   36  A    between atoms: _85  and  _86
REMARK   37  A    between atoms: _85  and  _88
REMARK   38  A    between atoms: _88  and  _89
REMARK   39  A    between atoms: _92  and  _94
REMARK   40  A    between atoms: _94  and  _95
REMARK   41  A    between atoms: _94  and  _97
REMARK   42  A    between atoms: _100  and  _102
REMARK   43  A    between atoms: _102  and  _103
REMARK   44  A    between atoms: _102  and  _105
REMARK   45  A    between atoms: _105  and  _106
REMARK   46  A    between atoms: _106  and  _107
REMARK   47  A    between atoms: _107  and  _108
REMARK   48  A    between atoms: _108  and  _109
REMARK   49  A    between atoms: _113  and  _115
REMARK   50  A    between atoms: _115  and  _116
REMARK   51  A    between atoms: _115  and  _118
REMARK   52  A    between atoms: _118  and  _119
REMARK   53  A    between atoms: _119  and  _120
REMARK   54  A    between atoms: _122  and  _124
REMARK   55  A    between atoms: _124  and  _125
REMARK   56  A    between atoms: _124  and  _127
REMARK   57  A    between atoms: _127  and  _128
REMARK   58  A    between atoms: _131  and  _133
REMARK   59  A    between atoms: _133  and  _134
REMARK   60  A    between atoms: _136  and  _138
REMARK   61  A    between atoms: _138  and  _139
REMARK   62  A    between atoms: _141  and  _143
REMARK   63  A    between atoms: _143  and  _144
REMARK   64  A    between atoms: _143  and  _146
REMARK   65  A    between atoms: _146  and  _147
REMARK   66  A    between atoms: _150  and  _152
REMARK   67  A    between atoms: _152  and  _153
REMARK   68  A    between atoms: _155  and  _157
REMARK   69  A    between atoms: _157  and  _158
REMARK   70  A    between atoms: _160  and  _162
REMARK   71  A    between atoms: _162  and  _163
REMARK   72  A    between atoms: _162  and  _165
REMARK   73  A    between atoms: _165  and  _166
REMARK   74  A    between atoms: _172  and  _174
REMARK   75  A    between atoms: _174  and  _175
REMARK   76  A    between atoms: _174  and  _177
REMARK   77  A    between atoms: _177  and  _178
REMARK   78  A    between atoms: _181  and  _183
REMARK   79  A    between atoms: _183  and  _184
REMARK   80  A    between atoms: _183  and  _186
REMARK   81  A    between atoms: _186  and  _187
REMARK   82  A    between atoms: _190  and  _192
REMARK   83  A    between atoms: _192  and  _193
REMARK   84  A    between atoms: _192  and  _195
REMARK   85  A    between atoms: _195  and  _196
REMARK   86  A    between atoms: _200  and  _201
REMARK   87  A    between atoms: _206  and  _208
REMARK   88  A    between atoms: _208  and  _209
REMARK   89  A    between atoms: _208  and  _211
REMARK   90  A    between atoms: _214  and  _216
REMARK   91  A    between atoms: _216  and  _217
REMARK   92  A    between atoms: _216  and  _219
REMARK   93  A    between atoms: _219  and  _220
REMARK   94  A    between atoms: _225  and  _227
REMARK   95  A    between atoms: _227  and  _228
REMARK   96  A    between atoms: _227  and  _230
REMARK   97  A    between atoms: _230  and  _231
REMARK   98  A    between atoms: _234  and  _236
REMARK   99  A    between atoms: _236  and  _237
REMARK  100  A    between atoms: _236  and  _239
REMARK  101  A    between atoms: _239  and  _240
REMARK  102  A    between atoms: _243  and  _245
REMARK  103  A    between atoms: _245  and  _246
REMARK  104  A    between atoms: _248  and  _250
REMARK  105  A    between atoms: _250  and  _251
REMARK  106  A    between atoms: _250  and  _253
REMARK  107  A    between atoms: _253  and  _254
REMARK  108  A    between atoms: _254  and  _255
REMARK  109  A    between atoms: _255  and  _256
REMARK  110  A    between atoms: _265  and  _267
REMARK  111  A    between atoms: _267  and  _268
REMARK  112  A    between atoms: _267  and  _270
REMARK  113  A    between atoms: _270  and  _271
REMARK  114  A    between atoms: _271  and  _272
REMARK  115  A    between atoms: _272  and  _273
REMARK  116  A    between atoms: _282  and  _284
REMARK  117  A    between atoms: _284  and  _285
REMARK  118  A    between atoms: _284  and  _287
REMARK  119  A    between atoms: _287  and  _288
REMARK  120  A    between atoms: _291  and  _293
REMARK  121  A    between atoms: _293  and  _294
REMARK  122  A    between atoms: _293  and  _296
REMARK  123  A    between atoms: _296  and  _297
REMARK  124  A    between atoms: _300  and  _302
REMARK  125  A    between atoms: _302  and  _303
REMARK  126  A    between atoms: _302  and  _305
REMARK  127  A    between atoms: _305  and  _306
REMARK  128  A    between atoms: _309  and  _311
REMARK  129  A    between atoms: _311  and  _312
REMARK  130  A    between atoms: _311  and  _314
REMARK  131  A    between atoms: _314  and  _315
REMARK  132  A    between atoms: _318  and  _320
REMARK  133  A    between atoms: _320  and  _321
REMARK  134  A    between atoms: _323  and  _325
REMARK  135  A    between atoms: _325  and  _326
REMARK  136  A    between atoms: _329  and  _331
REMARK  137  A    between atoms: _331  and  _332
REMARK  138  A    between atoms: _331  and  _334
REMARK  139  A    between atoms: _334  and  _335
REMARK  140  A    between atoms: _338  and  _340
REMARK  141  A    between atoms: _340  and  _341
REMARK  142  A    between atoms: _340  and  _343
REMARK  143  A    between atoms: _343  and  _344
REMARK  144  A    between atoms: _347  and  _349
REMARK  145  A    between atoms: _349  and  _350
REMARK  146  A    between atoms: _349  and  _352
REMARK  147  A    between atoms: _355  and  _357
REMARK  148  A    between atoms: _357  and  _358
REMARK  149  A    between atoms: _357  and  _360
REMARK  150  A    between atoms: _360  and  _361
REMARK  151  A    between atoms: _364  and  _366
REMARK  152  A    between atoms: _366  and  _367
REMARK  153  A    between atoms: _369  and  _371
REMARK  154  A    between atoms: _371  and  _372
REMARK  155  A    between atoms: _374  and  _376
REMARK  156  A    between atoms: _376  and  _377
REMARK  157  A    between atoms: _376  and  _379
REMARK  158  A    between atoms: _379  and  _380
REMARK  159  A    between atoms: _383  and  _385
REMARK  160  A    between atoms: _385  and  _386
REMARK  161  A    between atoms: _388  and  _390
REMARK  162  A    between atoms: _390  and  _391
REMARK  163  A    between atoms: _393  and  _395
REMARK  164  A    between atoms: _395  and  _396
REMARK  165  A    between atoms: _395  and  _398
REMARK  166  A    between atoms: _398  and  _399
REMARK  167  A    between atoms: _403  and  _404
REMARK  168  A    between atoms: _409  and  _411
REMARK  169  A    between atoms: _411  and  _412
REMARK  170  A    between atoms: _411  and  _414
REMARK  171  A    between atoms: _417  and  _419
REMARK  172  A    between atoms: _419  and  _420
REMARK  173  A    between atoms: _419  and  _422
REMARK  174  A    between atoms: _422  and  _423
REMARK  175  A    between atoms: _428  and  _430
REMARK  176  A    between atoms: _430  and  _431
REMARK  177  A    between atoms: _430  and  _433
REMARK  178  A    between atoms: _433  and  _434
REMARK  179  A    between atoms: _437  and  _439
REMARK  180  A    between atoms: _439  and  _440
REMARK  181  A    between atoms: _439  and  _442
REMARK  182  A    between atoms: _442  and  _443
REMARK                            x       y       z     vdW  Elec       q    Type
REMARK                         _______ _______ _______ _____ _____    ______ ____
ROOT
ATOM      1  O   HOH     1       4.793  34.743   2.937  0.00  0.00    +0.000 OA
ENDROOT
TORSDOF 0
REMARK  Name = ../refined-set-2016/7upj/7upj_pocket.pdb
REMARK  182 active torsions:
REMARK  status: ('A' for Active; 'I' for Inactive)
REMARK    1  A    between atoms: _1  and  _3
REMARK    2  A    between atoms: _3  and  _4
REMARK    3  A    between atoms: _3  and  _6
REMARK    4  A    between atoms: _6  and  _7
REMARK    5  A    between atoms: _7  and  _8
REMARK    6  A    between atoms: _8  and  _9
REMARK    7  A    between atoms: _18  and  _20
REMARK    8  A    between atoms: _20  and  _21
REMARK    9  A    between atoms: _20  and  _23
REMARK   10  A    between atoms: _23  and  _24
REMARK   11  A    between atoms: _27  and  _29
REMARK   12  A    between atoms: _29  and  _30
REMARK   13  A    between atoms: _29  and  _32
REMARK   14  A    between atoms: _32  and  _33
REMARK   15  A    between atoms: _36  and  _38
REMARK   16  A    between atoms: _38  and  _39
REMARK   17  A    between atoms: _38  and  _41
REMARK   18  A    between atoms: _41  and  _42
REMARK   19  A    between atoms: _45  and  _47
REMARK   20  A    between atoms: _47  and  _48
REMARK   21  A    between atoms: _47  and  _50
REMARK   22  A    between atoms: _50  and  _51
REMARK   23  A    between atoms: _54  and  _56
REMARK   24  A    between atoms: _56  and  _57
REMARK   25  A    between atoms: _59  and  _61
REMARK   26  A    between atoms: _61  and  _62
REMARK   27  A    between atoms: _65  and  _67
REMARK   28  A    between atoms: _67  and  _68
REMARK   29  A    between atoms: _67  and  _70
REMARK   30  A    between atoms: _70  and  _71
REMARK   31  A    between atoms: _74  and  _76
REMARK   32  A    between atoms: _76  and  _77
REMARK   33  A    between atoms: _76  and  _79
REMARK   34  A    between atoms: _79  and  _80
REMARK   35  A    between atoms: _83  and  _85
REMARK   36  A    between atoms: _85  and  _86
REMARK   37  A    between atoms: _85  and  _88
REMARK   38  A    between atoms: _88  and  _89
REMARK   39  A    between atoms: _92  and  _94
REMARK   40  A    between atoms: _94  and  _95
REMARK   41  A    between atoms: _94  and  _97
REMARK   42  A    between atoms: _100  and  _102
REMARK   43  A    between atoms: _102  and  _103
REMARK   44  A    between atoms: _102  and  _105
REMARK   45  A    between atoms: _105  and  _106
REMARK   46  A    between atoms: _106  and  _107
REMARK   47  A    between atoms: _107  and  _108
REMARK   48  A    between atoms: _108  and  _109
REMARK   49  A    between atoms: _113  and  _115
REMARK   50  A    between atoms: _115  and  _116
REMARK   51  A    between atoms: _115  and  _118
REMARK   52  A    between atoms: _118  and  _119
REMARK   53  A    between atoms: _119  and  _120
REMARK   54  A    between atoms: _122  and  _124
REMARK   55  A    between atoms: _124  and  _125
REMARK   56  A    between atoms: _124  and  _127
REMARK   57  A    between atoms: _127  and  _128
REMARK   58  A    between atoms: _131  and  _133
REMARK   59  A    between atoms: _133  and  _134
REMARK   60  A    between atoms: _136  and  _138
REMARK   61  A    between atoms: _138  and  _139
REMARK   62  A    between atoms: _141  and  _143
REMARK   63  A    between atoms: _143  and  _144
REMARK   64  A    between atoms: _143  and  _146
REMARK   65  A    between atoms: _146  and  _147
REMARK   66  A    between atoms: _150  and  _152
REMARK   67  A    between atoms: _152  and  _153
REMARK   68  A    between atoms: _155  and  _157
REMARK   69  A    between atoms: _157  and  _158
REMARK   70  A    between atoms: _160  and  _162
REMARK   71  A    between atoms: _162  and  _163
REMARK   72  A    between atoms: _162  and  _165
REMARK   73  A    between atoms: _165  and  _166
REMARK   74  A    between atoms: _172  and  _174
REMARK   75  A    between atoms: _174  and  _175
REMARK   76  A    between atoms: _174  and  _177
REMARK   77  A    between atoms: _177  and  _178
REMARK   78  A    between atoms: _181  and  _183
REMARK   79  A    between atoms: _183  and  _184
REMARK   80  A    between atoms: _183  and  _186
REMARK   81  A    between atoms: _186  and  _187
REMARK   82  A    between atoms: _190  and  _192
REMARK   83  A    between atoms: _192  and  _193
REMARK   84  A    between atoms: _192  and  _195
REMARK   85  A    between atoms: _195  and  _196
REMARK   86  A    between atoms: _200  and  _201
REMARK   87  A    between atoms: _206  and  _208
REMARK   88  A    between atoms: _208  and  _209
REMARK   89  A    between atoms: _208  and  _211
REMARK   90  A    between atoms: _214  and  _216
REMARK   91  A    between atoms: _216  and  _217
REMARK   92  A    between atoms: _216  and  _219
REMARK   93  A    between atoms: _219  and  _220
REMARK   94  A    between atoms: _225  and  _227
REMARK   95  A    between atoms: _227  and  _228
REMARK   96  A    between atoms: _227  and  _230
REMARK   97  A    between atoms: _230  and  _231
REMARK   98  A    between atoms: _234  and  _236
REMARK   99  A    between atoms: _236  and  _237
REMARK  100  A    between atoms: _236  and  _239
REMARK  101  A    between atoms: _239  and  _240
REMARK  102  A    between atoms: _243  and  _245
REMARK  103  A    between atoms: _245  and  _246
REMARK  104  A    between atoms: _248  and  _250
REMARK  105  A    between atoms: _250  and  _251
REMARK  106  A    between atoms: _250  and  _253
REMARK  107  A    between atoms: _253  and  _254
REMARK  108  A    between atoms: _254  and  _255
REMARK  109  A    between atoms: _255  and  _256
REMARK  110  A    between atoms: _265  and  _267
REMARK  111  A    between atoms: _267  and  _268
REMARK  112  A    between atoms: _267  and  _270
REMARK  113  A    between atoms: _270  and  _271
REMARK  114  A    between atoms: _271  and  _272
REMARK  115  A    between atoms: _272  and  _273
REMARK  116  A    between atoms: _282  and  _284
REMARK  117  A    between atoms: _284  and  _285
REMARK  118  A    between atoms: _284  and  _287
REMARK  119  A    between atoms: _287  and  _288
REMARK  120  A    between atoms: _291  and  _293
REMARK  121  A    between atoms: _293  and  _294
REMARK  122  A    between atoms: _293  and  _296
REMARK  123  A    between atoms: _296  and  _297
REMARK  124  A    between atoms: _300  and  _302
REMARK  125  A    between atoms: _302  and  _303
REMARK  126  A    between atoms: _302  and  _305
REMARK  127  A    between atoms: _305  and  _306
REMARK  128  A    between atoms: _309  and  _311
REMARK  129  A    between atoms: _311  and  _312
REMARK  130  A    between atoms: _311  and  _314
REMARK  131  A    between atoms: _314  and  _315
REMARK  132  A    between atoms: _318  and  _320
REMARK  133  A    between atoms: _320  and  _321
REMARK  134  A    between atoms: _323  and  _325
REMARK  135  A    between atoms: _325  and  _326
REMARK  136  A    between atoms: _329  and  _331
REMARK  137  A    between atoms: _331  and  _332
REMARK  138  A    between atoms: _331  and  _334
REMARK  139  A    between atoms: _334  and  _335
REMARK  140  A    between atoms: _338  and  _340
REMARK  141  A    between atoms: _340  and  _341
REMARK  142  A    between atoms: _340  and  _343
REMARK  143  A    between atoms: _343  and  _344
REMARK  144  A    between atoms: _347  and  _349
REMARK  145  A    between atoms: _349  and  _350
REMARK  146  A    between atoms: _349  and  _352
REMARK  147  A    between atoms: _355  and  _357
REMARK  148  A    between atoms: _357  and  _358
REMARK  149  A    between atoms: _357  and  _360
REMARK  150  A    between atoms: _360  and  _361
REMARK  151  A    between atoms: _364  and  _366
REMARK  152  A    between atoms: _366  and  _367
REMARK  153  A    between atoms: _369  and  _371
REMARK  154  A    between atoms: _371  and  _372
REMARK  155  A    between atoms: _374  and  _376
REMARK  156  A    between atoms: _376  and  _377
REMARK  157  A    between atoms: _376  and  _379
REMARK  158  A    between atoms: _379  and  _380
REMARK  159  A    between atoms: _383  and  _385
REMARK  160  A    between atoms: _385  and  _386
REMARK  161  A    between atoms: _388  and  _390
REMARK  162  A    between atoms: _390  and  _391
REMARK  163  A    between atoms: _393  and  _395
REMARK  164  A    between atoms: _395  and  _396
REMARK  165  A    between atoms: _395  and  _398
REMARK  166  A    between atoms: _398  and  _399
REMARK  167  A    between atoms: _403  and  _404
REMARK  168  A    between atoms: _409  and  _411
REMARK  169  A    between atoms: _411  and  _412
REMARK  170  A    between atoms: _411  and  _414
REMARK  171  A    between atoms: _417  and  _419
REMARK  172  A    between atoms: _419  and  _420
REMARK  173  A    between atoms: _419  and  _422
REMARK  174  A    between atoms: _422  and  _423
REMARK  175  A    between atoms: _428  and  _430
REMARK  176  A    between atoms: _430  and  _431
REMARK  177  A    between atoms: _430  and  _433
REMARK  178  A    between atoms: _433  and  _434
REMARK  179  A    between atoms: _437  and  _439
REMARK  180  A    between atoms: _439  and  _440
REMARK  181  A    between atoms: _439  and  _442
REMARK  182  A    between atoms: _442  and  _443
REMARK                            x       y       z     vdW  Elec       q    Type
REMARK                         _______ _______ _______ _____ _____    ______ ____
ROOT
ATOM      1  O   HOH     1       4.771  34.734   0.336  0.00  0.00    +0.000 OA
ENDROOT
TORSDOF 0
REMARK  Name = ../refined-set-2016/7upj/7upj_pocket.pdb
REMARK  182 active torsions:
REMARK  status: ('A' for Active; 'I' for Inactive)
REMARK    1  A    between atoms: _1  and  _3
REMARK    2  A    between atoms: _3  and  _4
REMARK    3  A    between atoms: _3  and  _6
REMARK    4  A    between atoms: _6  and  _7
REMARK    5  A    between atoms: _7  and  _8
REMARK    6  A    between atoms: _8  and  _9
REMARK    7  A    between atoms: _18  and  _20
REMARK    8  A    between atoms: _20  and  _21
REMARK    9  A    between atoms: _20  and  _23
REMARK   10  A    between atoms: _23  and  _24
REMARK   11  A    between atoms: _27  and  _29
REMARK   12  A    between atoms: _29  and  _30
REMARK   13  A    between atoms: _29  and  _32
REMARK   14  A    between atoms: _32  and  _33
REMARK   15  A    between atoms: _36  and  _38
REMARK   16  A    between atoms: _38  and  _39
REMARK   17  A    between atoms: _38  and  _41
REMARK   18  A    between atoms: _41  and  _42
REMARK   19  A    between atoms: _45  and  _47
REMARK   20  A    between atoms: _47  and  _48
REMARK   21  A    between atoms: _47  and  _50
REMARK   22  A    between atoms: _50  and  _51
REMARK   23  A    between atoms: _54  and  _56
REMARK   24  A    between atoms: _56  and  _57
REMARK   25  A    between atoms: _59  and  _61
REMARK   26  A    between atoms: _61  and  _62
REMARK   27  A    between atoms: _65  and  _67
REMARK   28  A    between atoms: _67  and  _68
REMARK   29  A    between atoms: _67  and  _70
REMARK   30  A    between atoms: _70  and  _71
REMARK   31  A    between atoms: _74  and  _76
REMARK   32  A    between atoms: _76  and  _77
REMARK   33  A    between atoms: _76  and  _79
REMARK   34  A    between atoms: _79  and  _80
REMARK   35  A    between atoms: _83  and  _85
REMARK   36  A    between atoms: _85  and  _86
REMARK   37  A    between atoms: _85  and  _88
REMARK   38  A    between atoms: _88  and  _89
REMARK   39  A    between atoms: _92  and  _94
REMARK   40  A    between atoms: _94  and  _95
REMARK   41  A    between atoms: _94  and  _97
REMARK   42  A    between atoms: _100  and  _102
REMARK   43  A    between atoms: _102  and  _103
REMARK   44  A    between atoms: _102  and  _105
REMARK   45  A    between atoms: _105  and  _106
REMARK   46  A    between atoms: _106  and  _107
REMARK   47  A    between atoms: _107  and  _108
REMARK   48  A    between atoms: _108  and  _109
REMARK   49  A    between atoms: _113  and  _115
REMARK   50  A    between atoms: _115  and  _116
REMARK   51  A    between atoms: _115  and  _118
REMARK   52  A    between atoms: _118  and  _119
REMARK   53  A    between atoms: _119  and  _120
REMARK   54  A    between atoms: _122  and  _124
REMARK   55  A    between atoms: _124  and  _125
REMARK   56  A    between atoms: _124  and  _127
REMARK   57  A    between atoms: _127  and  _128
REMARK   58  A    between atoms: _131  and  _133
REMARK   59  A    between atoms: _133  and  _134
REMARK   60  A    between atoms: _136  and  _138
REMARK   61  A    between atoms: _138  and  _139
REMARK   62  A    between atoms: _141  and  _143
REMARK   63  A    between atoms: _143  and  _144
REMARK   64  A    between atoms: _143  and  _146
REMARK   65  A    between atoms: _146  and  _147
REMARK   66  A    between atoms: _150  and  _152
REMARK   67  A    between atoms: _152  and  _153
REMARK   68  A    between atoms: _155  and  _157
REMARK   69  A    between atoms: _157  and  _158
REMARK   70  A    between atoms: _160  and  _162
REMARK   71  A    between atoms: _162  and  _163
REMARK   72  A    between atoms: _162  and  _165
REMARK   73  A    between atoms: _165  and  _166
REMARK   74  A    between atoms: _172  and  _174
REMARK   75  A    between atoms: _174  and  _175
REMARK   76  A    between atoms: _174  and  _177
REMARK   77  A    between atoms: _177  and  _178
REMARK   78  A    between atoms: _181  and  _183
REMARK   79  A    between atoms: _183  and  _184
REMARK   80  A    between atoms: _183  and  _186
REMARK   81  A    between atoms: _186  and  _187
REMARK   82  A    between atoms: _190  and  _192
REMARK   83  A    between atoms: _192  and  _193
REMARK   84  A    between atoms: _192  and  _195
REMARK   85  A    between atoms: _195  and  _196
REMARK   86  A    between atoms: _200  and  _201
REMARK   87  A    between atoms: _206  and  _208
REMARK   88  A    between atoms: _208  and  _209
REMARK   89  A    between atoms: _208  and  _211
REMARK   90  A    between atoms: _214  and  _216
REMARK   91  A    between atoms: _216  and  _217
REMARK   92  A    between atoms: _216  and  _219
REMARK   93  A    between atoms: _219  and  _220
REMARK   94  A    between atoms: _225  and  _227
REMARK   95  A    between atoms: _227  and  _228
REMARK   96  A    between atoms: _227  and  _230
REMARK   97  A    between atoms: _230  and  _231
REMARK   98  A    between atoms: _234  and  _236
REMARK   99  A    between atoms: _236  and  _237
REMARK  100  A    between atoms: _236  and  _239
REMARK  101  A    between atoms: _239  and  _240
REMARK  102  A    between atoms: _243  and  _245
REMARK  103  A    between atoms: _245  and  _246
REMARK  104  A    between atoms: _248  and  _250
REMARK  105  A    between atoms: _250  and  _251
REMARK  106  A    between atoms: _250  and  _253
REMARK  107  A    between atoms: _253  and  _254
REMARK  108  A    between atoms: _254  and  _255
REMARK  109  A    between atoms: _255  and  _256
REMARK  110  A    between atoms: _265  and  _267
REMARK  111  A    between atoms: _267  and  _268
REMARK  112  A    between atoms: _267  and  _270
REMARK  113  A    between atoms: _270  and  _271
REMARK  114  A    between atoms: _271  and  _272
REMARK  115  A    between atoms: _272  and  _273
REMARK  116  A    between atoms: _282  and  _284
REMARK  117  A    between atoms: _284  and  _285
REMARK  118  A    between atoms: _284  and  _287
REMARK  119  A    between atoms: _287  and  _288
REMARK  120  A    between atoms: _291  and  _293
REMARK  121  A    between atoms: _293  and  _294
REMARK  122  A    between atoms: _293  and  _296
REMARK  123  A    between atoms: _296  and  _297
REMARK  124  A    between atoms: _300  and  _302
REMARK  125  A    between atoms: _302  and  _303
REMARK  126  A    between atoms: _302  and  _305
REMARK  127  A    between atoms: _305  and  _306
REMARK  128  A    between atoms: _309  and  _311
REMARK  129  A    between atoms: _311  and  _312
REMARK  130  A    between atoms: _311  and  _314
REMARK  131  A    between atoms: _314  and  _315
REMARK  132  A    between atoms: _318  and  _320
REMARK  133  A    between atoms: _320  and  _321
REMARK  134  A    between atoms: _323  and  _325
REMARK  135  A    between atoms: _325  and  _326
REMARK  136  A    between atoms: _329  and  _331
REMARK  137  A    between atoms: _331  and  _332
REMARK  138  A    between atoms: _331  and  _334
REMARK  139  A    between atoms: _334  and  _335
REMARK  140  A    between atoms: _338  and  _340
REMARK  141  A    between atoms: _340  and  _341
REMARK  142  A    between atoms: _340  and  _343
REMARK  143  A    between atoms: _343  and  _344
REMARK  144  A    between atoms: _347  and  _349
REMARK  145  A    between atoms: _349  and  _350
REMARK  146  A    between atoms: _349  and  _352
REMARK  147  A    between atoms: _355  and  _357
REMARK  148  A    between atoms: _357  and  _358
REMARK  149  A    between atoms: _357  and  _360
REMARK  150  A    between atoms: _360  and  _361
REMARK  151  A    between atoms: _364  and  _366
REMARK  152  A    between atoms: _366  and  _367
REMARK  153  A    between atoms: _369  and  _371
REMARK  154  A    between atoms: _371  and  _372
REMARK  155  A    between atoms: _374  and  _376
REMARK  156  A    between atoms: _376  and  _377
REMARK  157  A    between atoms: _376  and  _379
REMARK  158  A    between atoms: _379  and  _380
REMARK  159  A    between atoms: _383  and  _385
REMARK  160  A    between atoms: _385  and  _386
REMARK  161  A    between atoms: _388  and  _390
REMARK  162  A    between atoms: _390  and  _391
REMARK  163  A    between atoms: _393  and  _395
REMARK  164  A    between atoms: _395  and  _396
REMARK  165  A    between atoms: _395  and  _398
REMARK  166  A    between atoms: _398  and  _399
REMARK  167  A    between atoms: _403  and  _404
REMARK  168  A    between atoms: _409  and  _411
REMARK  169  A    between atoms: _411  and  _412
REMARK  170  A    between atoms: _411  and  _414
REMARK  171  A    between atoms: _417  and  _419
REMARK  172  A    between atoms: _419  and  _420
REMARK  173  A    between atoms: _419  and  _422
REMARK  174  A    between atoms: _422  and  _423
REMARK  175  A    between atoms: _428  and  _430
REMARK  176  A    between atoms: _430  and  _431
REMARK  177  A    between atoms: _430  and  _433
REMARK  178  A    between atoms: _433  and  _434
REMARK  179  A    between atoms: _437  and  _439
REMARK  180  A    between atoms: _439  and  _440
REMARK  181  A    between atoms: _439  and  _442
REMARK  182  A    between atoms: _442  and  _443
REMARK                            x       y       z     vdW  Elec       q    Type
REMARK                         _______ _______ _______ _____ _____    ______ ____
ROOT
ATOM      1  O   HOH     1       5.717  29.981  -3.314  0.00  0.00    +0.000 OA
ENDROOT
TORSDOF 0
REMARK  Name = ../refined-set-2016/7upj/7upj_pocket.pdb
REMARK  182 active torsions:
REMARK  status: ('A' for Active; 'I' for Inactive)
REMARK    1  A    between atoms: _1  and  _3
REMARK    2  A    between atoms: _3  and  _4
REMARK    3  A    between atoms: _3  and  _6
REMARK    4  A    between atoms: _6  and  _7
REMARK    5  A    between atoms: _7  and  _8
REMARK    6  A    between atoms: _8  and  _9
REMARK    7  A    between atoms: _18  and  _20
REMARK    8  A    between atoms: _20  and  _21
REMARK    9  A    between atoms: _20  and  _23
REMARK   10  A    between atoms: _23  and  _24
REMARK   11  A    between atoms: _27  and  _29
REMARK   12  A    between atoms: _29  and  _30
REMARK   13  A    between atoms: _29  and  _32
REMARK   14  A    between atoms: _32  and  _33
REMARK   15  A    between atoms: _36  and  _38
REMARK   16  A    between atoms: _38  and  _39
REMARK   17  A    between atoms: _38  and  _41
REMARK   18  A    between atoms: _41  and  _42
REMARK   19  A    between atoms: _45  and  _47
REMARK   20  A    between atoms: _47  and  _48
REMARK   21  A    between atoms: _47  and  _50
REMARK   22  A    between atoms: _50  and  _51
REMARK   23  A    between atoms: _54  and  _56
REMARK   24  A    between atoms: _56  and  _57
REMARK   25  A    between atoms: _59  and  _61
REMARK   26  A    between atoms: _61  and  _62
REMARK   27  A    between atoms: _65  and  _67
REMARK   28  A    between atoms: _67  and  _68
REMARK   29  A    between atoms: _67  and  _70
REMARK   30  A    between atoms: _70  and  _71
REMARK   31  A    between atoms: _74  and  _76
REMARK   32  A    between atoms: _76  and  _77
REMARK   33  A    between atoms: _76  and  _79
REMARK   34  A    between atoms: _79  and  _80
REMARK   35  A    between atoms: _83  and  _85
REMARK   36  A    between atoms: _85  and  _86
REMARK   37  A    between atoms: _85  and  _88
REMARK   38  A    between atoms: _88  and  _89
REMARK   39  A    between atoms: _92  and  _94
REMARK   40  A    between atoms: _94  and  _95
REMARK   41  A    between atoms: _94  and  _97
REMARK   42  A    between atoms: _100  and  _102
REMARK   43  A    between atoms: _102  and  _103
REMARK   44  A    between atoms: _102  and  _105
REMARK   45  A    between atoms: _105  and  _106
REMARK   46  A    between atoms: _106  and  _107
REMARK   47  A    between atoms: _107  and  _108
REMARK   48  A    between atoms: _108  and  _109
REMARK   49  A    between atoms: _113  and  _115
REMARK   50  A    between atoms: _115  and  _116
REMARK   51  A    between atoms: _115  and  _118
REMARK   52  A    between atoms: _118  and  _119
REMARK   53  A    between atoms: _119  and  _120
REMARK   54  A    between atoms: _122  and  _124
REMARK   55  A    between atoms: _124  and  _125
REMARK   56  A    between atoms: _124  and  _127
REMARK   57  A    between atoms: _127  and  _128
REMARK   58  A    between atoms: _131  and  _133
REMARK   59  A    between atoms: _133  and  _134
REMARK   60  A    between atoms: _136  and  _138
REMARK   61  A    between atoms: _138  and  _139
REMARK   62  A    between atoms: _141  and  _143
REMARK   63  A    between atoms: _143  and  _144
REMARK   64  A    between atoms: _143  and  _146
REMARK   65  A    between atoms: _146  and  _147
REMARK   66  A    between atoms: _150  and  _152
REMARK   67  A    between atoms: _152  and  _153
REMARK   68  A    between atoms: _155  and  _157
REMARK   69  A    between atoms: _157  and  _158
REMARK   70  A    between atoms: _160  and  _162
REMARK   71  A    between atoms: _162  and  _163
REMARK   72  A    between atoms: _162  and  _165
REMARK   73  A    between atoms: _165  and  _166
REMARK   74  A    between atoms: _172  and  _174
REMARK   75  A    between atoms: _174  and  _175
REMARK   76  A    between atoms: _174  and  _177
REMARK   77  A    between atoms: _177  and  _178
REMARK   78  A    between atoms: _181  and  _183
REMARK   79  A    between atoms: _183  and  _184
REMARK   80  A    between atoms: _183  and  _186
REMARK   81  A    between atoms: _186  and  _187
REMARK   82  A    between atoms: _190  and  _192
REMARK   83  A    between atoms: _192  and  _193
REMARK   84  A    between atoms: _192  and  _195
REMARK   85  A    between atoms: _195  and  _196
REMARK   86  A    between atoms: _200  and  _201
REMARK   87  A    between atoms: _206  and  _208
REMARK   88  A    between atoms: _208  and  _209
REMARK   89  A    between atoms: _208  and  _211
REMARK   90  A    between atoms: _214  and  _216
REMARK   91  A    between atoms: _216  and  _217
REMARK   92  A    between atoms: _216  and  _219
REMARK   93  A    between atoms: _219  and  _220
REMARK   94  A    between atoms: _225  and  _227
REMARK   95  A    between atoms: _227  and  _228
REMARK   96  A    between atoms: _227  and  _230
REMARK   97  A    between atoms: _230  and  _231
REMARK   98  A    between atoms: _234  and  _236
REMARK   99  A    between atoms: _236  and  _237
REMARK  100  A    between atoms: _236  and  _239
REMARK  101  A    between atoms: _239  and  _240
REMARK  102  A    between atoms: _243  and  _245
REMARK  103  A    between atoms: _245  and  _246
REMARK  104  A    between atoms: _248  and  _250
REMARK  105  A    between atoms: _250  and  _251
REMARK  106  A    between atoms: _250  and  _253
REMARK  107  A    between atoms: _253  and  _254
REMARK  108  A    between atoms: _254  and  _255
REMARK  109  A    between atoms: _255  and  _256
REMARK  110  A    between atoms: _265  and  _267
REMARK  111  A    between atoms: _267  and  _268
REMARK  112  A    between atoms: _267  and  _270
REMARK  113  A    between atoms: _270  and  _271
REMARK  114  A    between atoms: _271  and  _272
REMARK  115  A    between atoms: _272  and  _273
REMARK  116  A    between atoms: _282  and  _284
REMARK  117  A    between atoms: _284  and  _285
REMARK  118  A    between atoms: _284  and  _287
REMARK  119  A    between atoms: _287  and  _288
REMARK  120  A    between atoms: _291  and  _293
REMARK  121  A    between atoms: _293  and  _294
REMARK  122  A    between atoms: _293  and  _296
REMARK  123  A    between atoms: _296  and  _297
REMARK  124  A    between atoms: _300  and  _302
REMARK  125  A    between atoms: _302  and  _303
REMARK  126  A    between atoms: _302  and  _305
REMARK  127  A    between atoms: _305  and  _306
REMARK  128  A    between atoms: _309  and  _311
REMARK  129  A    between atoms: _311  and  _312
REMARK  130  A    between atoms: _311  and  _314
REMARK  131  A    between atoms: _314  and  _315
REMARK  132  A    between atoms: _318  and  _320
REMARK  133  A    between atoms: _320  and  _321
REMARK  134  A    between atoms: _323  and  _325
REMARK  135  A    between atoms: _325  and  _326
REMARK  136  A    between atoms: _329  and  _331
REMARK  137  A    between atoms: _331  and  _332
REMARK  138  A    between atoms: _331  and  _334
REMARK  139  A    between atoms: _334  and  _335
REMARK  140  A    between atoms: _338  and  _340
REMARK  141  A    between atoms: _340  and  _341
REMARK  142  A    between atoms: _340  and  _343
REMARK  143  A    between atoms: _343  and  _344
REMARK  144  A    between atoms: _347  and  _349
REMARK  145  A    between atoms: _349  and  _350
REMARK  146  A    between atoms: _349  and  _352
REMARK  147  A    between atoms: _355  and  _357
REMARK  148  A    between atoms: _357  and  _358
REMARK  149  A    between atoms: _357  and  _360
REMARK  150  A    between atoms: _360  and  _361
REMARK  151  A    between atoms: _364  and  _366
REMARK  152  A    between atoms: _366  and  _367
REMARK  153  A    between atoms: _369  and  _371
REMARK  154  A    between atoms: _371  and  _372
REMARK  155  A    between atoms: _374  and  _376
REMARK  156  A    between atoms: _376  and  _377
REMARK  157  A    between atoms: _376  and  _379
REMARK  158  A    between atoms: _379  and  _380
REMARK  159  A    between atoms: _383  and  _385
REMARK  160  A    between atoms: _385  and  _386
REMARK  161  A    between atoms: _388  and  _390
REMARK  162  A    between atoms: _390  and  _391
REMARK  163  A    between atoms: _393  and  _395
REMARK  164  A    between atoms: _395  and  _396
REMARK  165  A    between atoms: _395  and  _398
REMARK  166  A    between atoms: _398  and  _399
REMARK  167  A    between atoms: _403  and  _404
REMARK  168  A    between atoms: _409  and  _411
REMARK  169  A    between atoms: _411  and  _412
REMARK  170  A    between atoms: _411  and  _414
REMARK  171  A    between atoms: _417  and  _419
REMARK  172  A    between atoms: _419  and  _420
REMARK  173  A    between atoms: _419  and  _422
REMARK  174  A    between atoms: _422  and  _423
REMARK  175  A    between atoms: _428  and  _430
REMARK  176  A    between atoms: _430  and  _431
REMARK  177  A    between atoms: _430  and  _433
REMARK  178  A    between atoms: _433  and  _434
REMARK  179  A    between atoms: _437  and  _439
REMARK  180  A    between atoms: _439  and  _440
REMARK  181  A    between atoms: _439  and  _442
REMARK  182  A    between atoms: _442  and  _443
REMARK                            x       y       z     vdW  Elec       q    Type
REMARK                         _______ _______ _______ _____ _____    ______ ____
ROOT
ATOM      1  O   HOH     1       3.496  28.537  -0.012  0.00  0.00    +0.000 OA
ENDROOT
TORSDOF 0
REMARK  Name = ../refined-set-2016/7upj/7upj_pocket.pdb
REMARK  182 active torsions:
REMARK  status: ('A' for Active; 'I' for Inactive)
REMARK    1  A    between atoms: _1  and  _3
REMARK    2  A    between atoms: _3  and  _4
REMARK    3  A    between atoms: _3  and  _6
REMARK    4  A    between atoms: _6  and  _7
REMARK    5  A    between atoms: _7  and  _8
REMARK    6  A    between atoms: _8  and  _9
REMARK    7  A    between atoms: _18  and  _20
REMARK    8  A    between atoms: _20  and  _21
REMARK    9  A    between atoms: _20  and  _23
REMARK   10  A    between atoms: _23  and  _24
REMARK   11  A    between atoms: _27  and  _29
REMARK   12  A    between atoms: _29  and  _30
REMARK   13  A    between atoms: _29  and  _32
REMARK   14  A    between atoms: _32  and  _33
REMARK   15  A    between atoms: _36  and  _38
REMARK   16  A    between atoms: _38  and  _39
REMARK   17  A    between atoms: _38  and  _41
REMARK   18  A    between atoms: _41  and  _42
REMARK   19  A    between atoms: _45  and  _47
REMARK   20  A    between atoms: _47  and  _48
REMARK   21  A    between atoms: _47  and  _50
REMARK   22  A    between atoms: _50  and  _51
REMARK   23  A    between atoms: _54  and  _56
REMARK   24  A    between atoms: _56  and  _57
REMARK   25  A    between atoms: _59  and  _61
REMARK   26  A    between atoms: _61  and  _62
REMARK   27  A    between atoms: _65  and  _67
REMARK   28  A    between atoms: _67  and  _68
REMARK   29  A    between atoms: _67  and  _70
REMARK   30  A    between atoms: _70  and  _71
REMARK   31  A    between atoms: _74  and  _76
REMARK   32  A    between atoms: _76  and  _77
REMARK   33  A    between atoms: _76  and  _79
REMARK   34  A    between atoms: _79  and  _80
REMARK   35  A    between atoms: _83  and  _85
REMARK   36  A    between atoms: _85  and  _86
REMARK   37  A    between atoms: _85  and  _88
REMARK   38  A    between atoms: _88  and  _89
REMARK   39  A    between atoms: _92  and  _94
REMARK   40  A    between atoms: _94  and  _95
REMARK   41  A    between atoms: _94  and  _97
REMARK   42  A    between atoms: _100  and  _102
REMARK   43  A    between atoms: _102  and  _103
REMARK   44  A    between atoms: _102  and  _105
REMARK   45  A    between atoms: _105  and  _106
REMARK   46  A    between atoms: _106  and  _107
REMARK   47  A    between atoms: _107  and  _108
REMARK   48  A    between atoms: _108  and  _109
REMARK   49  A    between atoms: _113  and  _115
REMARK   50  A    between atoms: _115  and  _116
REMARK   51  A    between atoms: _115  and  _118
REMARK   52  A    between atoms: _118  and  _119
REMARK   53  A    between atoms: _119  and  _120
REMARK   54  A    between atoms: _122  and  _124
REMARK   55  A    between atoms: _124  and  _125
REMARK   56  A    between atoms: _124  and  _127
REMARK   57  A    between atoms: _127  and  _128
REMARK   58  A    between atoms: _131  and  _133
REMARK   59  A    between atoms: _133  and  _134
REMARK   60  A    between atoms: _136  and  _138
REMARK   61  A    between atoms: _138  and  _139
REMARK   62  A    between atoms: _141  and  _143
REMARK   63  A    between atoms: _143  and  _144
REMARK   64  A    between atoms: _143  and  _146
REMARK   65  A    between atoms: _146  and  _147
REMARK   66  A    between atoms: _150  and  _152
REMARK   67  A    between atoms: _152  and  _153
REMARK   68  A    between atoms: _155  and  _157
REMARK   69  A    between atoms: _157  and  _158
REMARK   70  A    between atoms: _160  and  _162
REMARK   71  A    between atoms: _162  and  _163
REMARK   72  A    between atoms: _162  and  _165
REMARK   73  A    between atoms: _165  and  _166
REMARK   74  A    between atoms: _172  and  _174
REMARK   75  A    between atoms: _174  and  _175
REMARK   76  A    between atoms: _174  and  _177
REMARK   77  A    between atoms: _177  and  _178
REMARK   78  A    between atoms: _181  and  _183
REMARK   79  A    between atoms: _183  and  _184
REMARK   80  A    between atoms: _183  and  _186
REMARK   81  A    between atoms: _186  and  _187
REMARK   82  A    between atoms: _190  and  _192
REMARK   83  A    between atoms: _192  and  _193
REMARK   84  A    between atoms: _192  and  _195
REMARK   85  A    between atoms: _195  and  _196
REMARK   86  A    between atoms: _200  and  _201
REMARK   87  A    between atoms: _206  and  _208
REMARK   88  A    between atoms: _208  and  _209
REMARK   89  A    between atoms: _208  and  _211
REMARK   90  A    between atoms: _214  and  _216
REMARK   91  A    between atoms: _216  and  _217
REMARK   92  A    between atoms: _216  and  _219
REMARK   93  A    between atoms: _219  and  _220
REMARK   94  A    between atoms: _225  and  _227
REMARK   95  A    between atoms: _227  and  _228
REMARK   96  A    between atoms: _227  and  _230
REMARK   97  A    between atoms: _230  and  _231
REMARK   98  A    between atoms: _234  and  _236
REMARK   99  A    between atoms: _236  and  _237
REMARK  100  A    between atoms: _236  and  _239
REMARK  101  A    between atoms: _239  and  _240
REMARK  102  A    between atoms: _243  and  _245
REMARK  103  A    between atoms: _245  and  _246
REMARK  104  A    between atoms: _248  and  _250
REMARK  105  A    between atoms: _250  and  _251
REMARK  106  A    between atoms: _250  and  _253
REMARK  107  A    between atoms: _253  and  _254
REMARK  108  A    between atoms: _254  and  _255
REMARK  109  A    between atoms: _255  and  _256
REMARK  110  A    between atoms: _265  and  _267
REMARK  111  A    between atoms: _267  and  _268
REMARK  112  A    between atoms: _267  and  _270
REMARK  113  A    between atoms: _270  and  _271
REMARK  114  A    between atoms: _271  and  _272
REMARK  115  A    between atoms: _272  and  _273
REMARK  116  A    between atoms: _282  and  _284
REMARK  117  A    between atoms: _284  and  _285
REMARK  118  A    between atoms: _284  and  _287
REMARK  119  A    between atoms: _287  and  _288
REMARK  120  A    between atoms: _291  and  _293
REMARK  121  A    between atoms: _293  and  _294
REMARK  122  A    between atoms: _293  and  _296
REMARK  123  A    between atoms: _296  and  _297
REMARK  124  A    between atoms: _300  and  _302
REMARK  125  A    between atoms: _302  and  _303
REMARK  126  A    between atoms: _302  and  _305
REMARK  127  A    between atoms: _305  and  _306
REMARK  128  A    between atoms: _309  and  _311
REMARK  129  A    between atoms: _311  and  _312
REMARK  130  A    between atoms: _311  and  _314
REMARK  131  A    between atoms: _314  and  _315
REMARK  132  A    between atoms: _318  and  _320
REMARK  133  A    between atoms: _320  and  _321
REMARK  134  A    between atoms: _323  and  _325
REMARK  135  A    between atoms: _325  and  _326
REMARK  136  A    between atoms: _329  and  _331
REMARK  137  A    between atoms: _331  and  _332
REMARK  138  A    between atoms: _331  and  _334
REMARK  139  A    between atoms: _334  and  _335
REMARK  140  A    between atoms: _338  and  _340
REMARK  141  A    between atoms: _340  and  _341
REMARK  142  A    between atoms: _340  and  _343
REMARK  143  A    between atoms: _343  and  _344
REMARK  144  A    between atoms: _347  and  _349
REMARK  145  A    between atoms: _349  and  _350
REMARK  146  A    between atoms: _349  and  _352
REMARK  147  A    between atoms: _355  and  _357
REMARK  148  A    between atoms: _357  and  _358
REMARK  149  A    between atoms: _357  and  _360
REMARK  150  A    between atoms: _360  and  _361
REMARK  151  A    between atoms: _364  and  _366
REMARK  152  A    between atoms: _366  and  _367
REMARK  153  A    between atoms: _369  and  _371
REMARK  154  A    between atoms: _371  and  _372
REMARK  155  A    between atoms: _374  and  _376
REMARK  156  A    between atoms: _376  and  _377
REMARK  157  A    between atoms: _376  and  _379
REMARK  158  A    between atoms: _379  and  _380
REMARK  159  A    between atoms: _383  and  _385
REMARK  160  A    between atoms: _385  and  _386
REMARK  161  A    between atoms: _388  and  _390
REMARK  162  A    between atoms: _390  and  _391
REMARK  163  A    between atoms: _393  and  _395
REMARK  164  A    between atoms: _395  and  _396
REMARK  165  A    between atoms: _395  and  _398
REMARK  166  A    between atoms: _398  and  _399
REMARK  167  A    between atoms: _403  and  _404
REMARK  168  A    between atoms: _409  and  _411
REMARK  169  A    between atoms: _411  and  _412
REMARK  170  A    between atoms: _411  and  _414
REMARK  171  A    between atoms: _417  and  _419
REMARK  172  A    between atoms: _419  and  _420
REMARK  173  A    between atoms: _419  and  _422
REMARK  174  A    between atoms: _422  and  _423
REMARK  175  A    between atoms: _428  and  _430
REMARK  176  A    between atoms: _430  and  _431
REMARK  177  A    between atoms: _430  and  _433
REMARK  178  A    between atoms: _433  and  _434
REMARK  179  A    between atoms: _437  and  _439
REMARK  180  A    between atoms: _439  and  _440
REMARK  181  A    between atoms: _439  and  _442
REMARK  182  A    between atoms: _442  and  _443
REMARK                            x       y       z     vdW  Elec       q    Type
REMARK                         _______ _______ _______ _____ _____    ______ ____
ROOT
ATOM      1  O   HOH     1       7.424  16.446   3.715  0.00  0.00    +0.000 OA
ENDROOT
TORSDOF 0
REMARK  Name = ../refined-set-2016/7upj/7upj_pocket.pdb
REMARK  182 active torsions:
REMARK  status: ('A' for Active; 'I' for Inactive)
REMARK    1  A    between atoms: _1  and  _3
REMARK    2  A    between atoms: _3  and  _4
REMARK    3  A    between atoms: _3  and  _6
REMARK    4  A    between atoms: _6  and  _7
REMARK    5  A    between atoms: _7  and  _8
REMARK    6  A    between atoms: _8  and  _9
REMARK    7  A    between atoms: _18  and  _20
REMARK    8  A    between atoms: _20  and  _21
REMARK    9  A    between atoms: _20  and  _23
REMARK   10  A    between atoms: _23  and  _24
REMARK   11  A    between atoms: _27  and  _29
REMARK   12  A    between atoms: _29  and  _30
REMARK   13  A    between atoms: _29  and  _32
REMARK   14  A    between atoms: _32  and  _33
REMARK   15  A    between atoms: _36  and  _38
REMARK   16  A    between atoms: _38  and  _39
REMARK   17  A    between atoms: _38  and  _41
REMARK   18  A    between atoms: _41  and  _42
REMARK   19  A    between atoms: _45  and  _47
REMARK   20  A    between atoms: _47  and  _48
REMARK   21  A    between atoms: _47  and  _50
REMARK   22  A    between atoms: _50  and  _51
REMARK   23  A    between atoms: _54  and  _56
REMARK   24  A    between atoms: _56  and  _57
REMARK   25  A    between atoms: _59  and  _61
REMARK   26  A    between atoms: _61  and  _62
REMARK   27  A    between atoms: _65  and  _67
REMARK   28  A    between atoms: _67  and  _68
REMARK   29  A    between atoms: _67  and  _70
REMARK   30  A    between atoms: _70  and  _71
REMARK   31  A    between atoms: _74  and  _76
REMARK   32  A    between atoms: _76  and  _77
REMARK   33  A    between atoms: _76  and  _79
REMARK   34  A    between atoms: _79  and  _80
REMARK   35  A    between atoms: _83  and  _85
REMARK   36  A    between atoms: _85  and  _86
REMARK   37  A    between atoms: _85  and  _88
REMARK   38  A    between atoms: _88  and  _89
REMARK   39  A    between atoms: _92  and  _94
REMARK   40  A    between atoms: _94  and  _95
REMARK   41  A    between atoms: _94  and  _97
REMARK   42  A    between atoms: _100  and  _102
REMARK   43  A    between atoms: _102  and  _103
REMARK   44  A    between atoms: _102  and  _105
REMARK   45  A    between atoms: _105  and  _106
REMARK   46  A    between atoms: _106  and  _107
REMARK   47  A    between atoms: _107  and  _108
REMARK   48  A    between atoms: _108  and  _109
REMARK   49  A    between atoms: _113  and  _115
REMARK   50  A    between atoms: _115  and  _116
REMARK   51  A    between atoms: _115  and  _118
REMARK   52  A    between atoms: _118  and  _119
REMARK   53  A    between atoms: _119  and  _120
REMARK   54  A    between atoms: _122  and  _124
REMARK   55  A    between atoms: _124  and  _125
REMARK   56  A    between atoms: _124  and  _127
REMARK   57  A    between atoms: _127  and  _128
REMARK   58  A    between atoms: _131  and  _133
REMARK   59  A    between atoms: _133  and  _134
REMARK   60  A    between atoms: _136  and  _138
REMARK   61  A    between atoms: _138  and  _139
REMARK   62  A    between atoms: _141  and  _143
REMARK   63  A    between atoms: _143  and  _144
REMARK   64  A    between atoms: _143  and  _146
REMARK   65  A    between atoms: _146  and  _147
REMARK   66  A    between atoms: _150  and  _152
REMARK   67  A    between atoms: _152  and  _153
REMARK   68  A    between atoms: _155  and  _157
REMARK   69  A    between atoms: _157  and  _158
REMARK   70  A    between atoms: _160  and  _162
REMARK   71  A    between atoms: _162  and  _163
REMARK   72  A    between atoms: _162  and  _165
REMARK   73  A    between atoms: _165  and  _166
REMARK   74  A    between atoms: _172  and  _174
REMARK   75  A    between atoms: _174  and  _175
REMARK   76  A    between atoms: _174  and  _177
REMARK   77  A    between atoms: _177  and  _178
REMARK   78  A    between atoms: _181  and  _183
REMARK   79  A    between atoms: _183  and  _184
REMARK   80  A    between atoms: _183  and  _186
REMARK   81  A    between atoms: _186  and  _187
REMARK   82  A    between atoms: _190  and  _192
REMARK   83  A    between atoms: _192  and  _193
REMARK   84  A    between atoms: _192  and  _195
REMARK   85  A    between atoms: _195  and  _196
REMARK   86  A    between atoms: _200  and  _201
REMARK   87  A    between atoms: _206  and  _208
REMARK   88  A    between atoms: _208  and  _209
REMARK   89  A    between atoms: _208  and  _211
REMARK   90  A    between atoms: _214  and  _216
REMARK   91  A    between atoms: _216  and  _217
REMARK   92  A    between atoms: _216  and  _219
REMARK   93  A    between atoms: _219  and  _220
REMARK   94  A    between atoms: _225  and  _227
REMARK   95  A    between atoms: _227  and  _228
REMARK   96  A    between atoms: _227  and  _230
REMARK   97  A    between atoms: _230  and  _231
REMARK   98  A    between atoms: _234  and  _236
REMARK   99  A    between atoms: _236  and  _237
REMARK  100  A    between atoms: _236  and  _239
REMARK  101  A    between atoms: _239  and  _240
REMARK  102  A    between atoms: _243  and  _245
REMARK  103  A    between atoms: _245  and  _246
REMARK  104  A    between atoms: _248  and  _250
REMARK  105  A    between atoms: _250  and  _251
REMARK  106  A    between atoms: _250  and  _253
REMARK  107  A    between atoms: _253  and  _254
REMARK  108  A    between atoms: _254  and  _255
REMARK  109  A    between atoms: _255  and  _256
REMARK  110  A    between atoms: _265  and  _267
REMARK  111  A    between atoms: _267  and  _268
REMARK  112  A    between atoms: _267  and  _270
REMARK  113  A    between atoms: _270  and  _271
REMARK  114  A    between atoms: _271  and  _272
REMARK  115  A    between atoms: _272  and  _273
REMARK  116  A    between atoms: _282  and  _284
REMARK  117  A    between atoms: _284  and  _285
REMARK  118  A    between atoms: _284  and  _287
REMARK  119  A    between atoms: _287  and  _288
REMARK  120  A    between atoms: _291  and  _293
REMARK  121  A    between atoms: _293  and  _294
REMARK  122  A    between atoms: _293  and  _296
REMARK  123  A    between atoms: _296  and  _297
REMARK  124  A    between atoms: _300  and  _302
REMARK  125  A    between atoms: _302  and  _303
REMARK  126  A    between atoms: _302  and  _305
REMARK  127  A    between atoms: _305  and  _306
REMARK  128  A    between atoms: _309  and  _311
REMARK  129  A    between atoms: _311  and  _312
REMARK  130  A    between atoms: _311  and  _314
REMARK  131  A    between atoms: _314  and  _315
REMARK  132  A    between atoms: _318  and  _320
REMARK  133  A    between atoms: _320  and  _321
REMARK  134  A    between atoms: _323  and  _325
REMARK  135  A    between atoms: _325  and  _326
REMARK  136  A    between atoms: _329  and  _331
REMARK  137  A    between atoms: _331  and  _332
REMARK  138  A    between atoms: _331  and  _334
REMARK  139  A    between atoms: _334  and  _335
REMARK  140  A    between atoms: _338  and  _340
REMARK  141  A    between atoms: _340  and  _341
REMARK  142  A    between atoms: _340  and  _343
REMARK  143  A    between atoms: _343  and  _344
REMARK  144  A    between atoms: _347  and  _349
REMARK  145  A    between atoms: _349  and  _350
REMARK  146  A    between atoms: _349  and  _352
REMARK  147  A    between atoms: _355  and  _357
REMARK  148  A    between atoms: _357  and  _358
REMARK  149  A    between atoms: _357  and  _360
REMARK  150  A    between atoms: _360  and  _361
REMARK  151  A    between atoms: _364  and  _366
REMARK  152  A    between atoms: _366  and  _367
REMARK  153  A    between atoms: _369  and  _371
REMARK  154  A    between atoms: _371  and  _372
REMARK  155  A    between atoms: _374  and  _376
REMARK  156  A    between atoms: _376  and  _377
REMARK  157  A    between atoms: _376  and  _379
REMARK  158  A    between atoms: _379  and  _380
REMARK  159  A    between atoms: _383  and  _385
REMARK  160  A    between atoms: _385  and  _386
REMARK  161  A    between atoms: _388  and  _390
REMARK  162  A    between atoms: _390  and  _391
REMARK  163  A    between atoms: _393  and  _395
REMARK  164  A    between atoms: _395  and  _396
REMARK  165  A    between atoms: _395  and  _398
REMARK  166  A    between atoms: _398  and  _399
REMARK  167  A    between atoms: _403  and  _404
REMARK  168  A    between atoms: _409  and  _411
REMARK  169  A    between atoms: _411  and  _412
REMARK  170  A    between atoms: _411  and  _414
REMARK  171  A    between atoms: _417  and  _419
REMARK  172  A    between atoms: _419  and  _420
REMARK  173  A    between atoms: _419  and  _422
REMARK  174  A    between atoms: _422  and  _423
REMARK  175  A    between atoms: _428  and  _430
REMARK  176  A    between atoms: _430  and  _431
REMARK  177  A    between atoms: _430  and  _433
REMARK  178  A    between atoms: _433  and  _434
REMARK  179  A    between atoms: _437  and  _439
REMARK  180  A    between atoms: _439  and  _440
REMARK  181  A    between atoms: _439  and  _442
REMARK  182  A    between atoms: _442  and  _443
REMARK                            x       y       z     vdW  Elec       q    Type
REMARK                         _______ _______ _______ _____ _____    ______ ____
ROOT
ATOM      1  O   HOH     1      23.215  24.693   5.145  0.00  0.00    +0.000 OA
ENDROOT
TORSDOF 0
REMARK  Name = ../refined-set-2016/7upj/7upj_pocket.pdb
REMARK  182 active torsions:
REMARK  status: ('A' for Active; 'I' for Inactive)
REMARK    1  A    between atoms: _1  and  _3
REMARK    2  A    between atoms: _3  and  _4
REMARK    3  A    between atoms: _3  and  _6
REMARK    4  A    between atoms: _6  and  _7
REMARK    5  A    between atoms: _7  and  _8
REMARK    6  A    between atoms: _8  and  _9
REMARK    7  A    between atoms: _18  and  _20
REMARK    8  A    between atoms: _20  and  _21
REMARK    9  A    between atoms: _20  and  _23
REMARK   10  A    between atoms: _23  and  _24
REMARK   11  A    between atoms: _27  and  _29
REMARK   12  A    between atoms: _29  and  _30
REMARK   13  A    between atoms: _29  and  _32
REMARK   14  A    between atoms: _32  and  _33
REMARK   15  A    between atoms: _36  and  _38
REMARK   16  A    between atoms: _38  and  _39
REMARK   17  A    between atoms: _38  and  _41
REMARK   18  A    between atoms: _41  and  _42
REMARK   19  A    between atoms: _45  and  _47
REMARK   20  A    between atoms: _47  and  _48
REMARK   21  A    between atoms: _47  and  _50
REMARK   22  A    between atoms: _50  and  _51
REMARK   23  A    between atoms: _54  and  _56
REMARK   24  A    between atoms: _56  and  _57
REMARK   25  A    between atoms: _59  and  _61
REMARK   26  A    between atoms: _61  and  _62
REMARK   27  A    between atoms: _65  and  _67
REMARK   28  A    between atoms: _67  and  _68
REMARK   29  A    between atoms: _67  and  _70
REMARK   30  A    between atoms: _70  and  _71
REMARK   31  A    between atoms: _74  and  _76
REMARK   32  A    between atoms: _76  and  _77
REMARK   33  A    between atoms: _76  and  _79
REMARK   34  A    between atoms: _79  and  _80
REMARK   35  A    between atoms: _83  and  _85
REMARK   36  A    between atoms: _85  and  _86
REMARK   37  A    between atoms: _85  and  _88
REMARK   38  A    between atoms: _88  and  _89
REMARK   39  A    between atoms: _92  and  _94
REMARK   40  A    between atoms: _94  and  _95
REMARK   41  A    between atoms: _94  and  _97
REMARK   42  A    between atoms: _100  and  _102
REMARK   43  A    between atoms: _102  and  _103
REMARK   44  A    between atoms: _102  and  _105
REMARK   45  A    between atoms: _105  and  _106
REMARK   46  A    between atoms: _106  and  _107
REMARK   47  A    between atoms: _107  and  _108
REMARK   48  A    between atoms: _108  and  _109
REMARK   49  A    between atoms: _113  and  _115
REMARK   50  A    between atoms: _115  and  _116
REMARK   51  A    between atoms: _115  and  _118
REMARK   52  A    between atoms: _118  and  _119
REMARK   53  A    between atoms: _119  and  _120
REMARK   54  A    between atoms: _122  and  _124
REMARK   55  A    between atoms: _124  and  _125
REMARK   56  A    between atoms: _124  and  _127
REMARK   57  A    between atoms: _127  and  _128
REMARK   58  A    between atoms: _131  and  _133
REMARK   59  A    between atoms: _133  and  _134
REMARK   60  A    between atoms: _136  and  _138
REMARK   61  A    between atoms: _138  and  _139
REMARK   62  A    between atoms: _141  and  _143
REMARK   63  A    between atoms: _143  and  _144
REMARK   64  A    between atoms: _143  and  _146
REMARK   65  A    between atoms: _146  and  _147
REMARK   66  A    between atoms: _150  and  _152
REMARK   67  A    between atoms: _152  and  _153
REMARK   68  A    between atoms: _155  and  _157
REMARK   69  A    between atoms: _157  and  _158
REMARK   70  A    between atoms: _160  and  _162
REMARK   71  A    between atoms: _162  and  _163
REMARK   72  A    between atoms: _162  and  _165
REMARK   73  A    between atoms: _165  and  _166
REMARK   74  A    between atoms: _172  and  _174
REMARK   75  A    between atoms: _174  and  _175
REMARK   76  A    between atoms: _174  and  _177
REMARK   77  A    between atoms: _177  and  _178
REMARK   78  A    between atoms: _181  and  _183
REMARK   79  A    between atoms: _183  and  _184
REMARK   80  A    between atoms: _183  and  _186
REMARK   81  A    between atoms: _186  and  _187
REMARK   82  A    between atoms: _190  and  _192
REMARK   83  A    between atoms: _192  and  _193
REMARK   84  A    between atoms: _192  and  _195
REMARK   85  A    between atoms: _195  and  _196
REMARK   86  A    between atoms: _200  and  _201
REMARK   87  A    between atoms: _206  and  _208
REMARK   88  A    between atoms: _208  and  _209
REMARK   89  A    between atoms: _208  and  _211
REMARK   90  A    between atoms: _214  and  _216
REMARK   91  A    between atoms: _216  and  _217
REMARK   92  A    between atoms: _216  and  _219
REMARK   93  A    between atoms: _219  and  _220
REMARK   94  A    between atoms: _225  and  _227
REMARK   95  A    between atoms: _227  and  _228
REMARK   96  A    between atoms: _227  and  _230
REMARK   97  A    between atoms: _230  and  _231
REMARK   98  A    between atoms: _234  and  _236
REMARK   99  A    between atoms: _236  and  _237
REMARK  100  A    between atoms: _236  and  _239
REMARK  101  A    between atoms: _239  and  _240
REMARK  102  A    between atoms: _243  and  _245
REMARK  103  A    between atoms: _245  and  _246
REMARK  104  A    between atoms: _248  and  _250
REMARK  105  A    between atoms: _250  and  _251
REMARK  106  A    between atoms: _250  and  _253
REMARK  107  A    between atoms: _253  and  _254
REMARK  108  A    between atoms: _254  and  _255
REMARK  109  A    between atoms: _255  and  _256
REMARK  110  A    between atoms: _265  and  _267
REMARK  111  A    between atoms: _267  and  _268
REMARK  112  A    between atoms: _267  and  _270
REMARK  113  A    between atoms: _270  and  _271
REMARK  114  A    between atoms: _271  and  _272
REMARK  115  A    between atoms: _272  and  _273
REMARK  116  A    between atoms: _282  and  _284
REMARK  117  A    between atoms: _284  and  _285
REMARK  118  A    between atoms: _284  and  _287
REMARK  119  A    between atoms: _287  and  _288
REMARK  120  A    between atoms: _291  and  _293
REMARK  121  A    between atoms: _293  and  _294
REMARK  122  A    between atoms: _293  and  _296
REMARK  123  A    between atoms: _296  and  _297
REMARK  124  A    between atoms: _300  and  _302
REMARK  125  A    between atoms: _302  and  _303
REMARK  126  A    between atoms: _302  and  _305
REMARK  127  A    between atoms: _305  and  _306
REMARK  128  A    between atoms: _309  and  _311
REMARK  129  A    between atoms: _311  and  _312
REMARK  130  A    between atoms: _311  and  _314
REMARK  131  A    between atoms: _314  and  _315
REMARK  132  A    between atoms: _318  and  _320
REMARK  133  A    between atoms: _320  and  _321
REMARK  134  A    between atoms: _323  and  _325
REMARK  135  A    between atoms: _325  and  _326
REMARK  136  A    between atoms: _329  and  _331
REMARK  137  A    between atoms: _331  and  _332
REMARK  138  A    between atoms: _331  and  _334
REMARK  139  A    between atoms: _334  and  _335
REMARK  140  A    between atoms: _338  and  _340
REMARK  141  A    between atoms: _340  and  _341
REMARK  142  A    between atoms: _340  and  _343
REMARK  143  A    between atoms: _343  and  _344
REMARK  144  A    between atoms: _347  and  _349
REMARK  145  A    between atoms: _349  and  _350
REMARK  146  A    between atoms: _349  and  _352
REMARK  147  A    between atoms: _355  and  _357
REMARK  148  A    between atoms: _357  and  _358
REMARK  149  A    between atoms: _357  and  _360
REMARK  150  A    between atoms: _360  and  _361
REMARK  151  A    between atoms: _364  and  _366
REMARK  152  A    between atoms: _366  and  _367
REMARK  153  A    between atoms: _369  and  _371
REMARK  154  A    between atoms: _371  and  _372
REMARK  155  A    between atoms: _374  and  _376
REMARK  156  A    between atoms: _376  and  _377
REMARK  157  A    between atoms: _376  and  _379
REMARK  158  A    between atoms: _379  and  _380
REMARK  159  A    between atoms: _383  and  _385
REMARK  160  A    between atoms: _385  and  _386
REMARK  161  A    between atoms: _388  and  _390
REMARK  162  A    between atoms: _390  and  _391
REMARK  163  A    between atoms: _393  and  _395
REMARK  164  A    between atoms: _395  and  _396
REMARK  165  A    between atoms: _395  and  _398
REMARK  166  A    between atoms: _398  and  _399
REMARK  167  A    between atoms: _403  and  _404
REMARK  168  A    between atoms: _409  and  _411
REMARK  169  A    between atoms: _411  and  _412
REMARK  170  A    between atoms: _411  and  _414
REMARK  171  A    between atoms: _417  and  _419
REMARK  172  A    between atoms: _419  and  _420
REMARK  173  A    between atoms: _419  and  _422
REMARK  174  A    between atoms: _422  and  _423
REMARK  175  A    between atoms: _428  and  _430
REMARK  176  A    between atoms: _430  and  _431
REMARK  177  A    between atoms: _430  and  _433
REMARK  178  A    between atoms: _433  and  _434
REMARK  179  A    between atoms: _437  and  _439
REMARK  180  A    between atoms: _439  and  _440
REMARK  181  A    between atoms: _439  and  _442
REMARK  182  A    between atoms: _442  and  _443
REMARK                            x       y       z     vdW  Elec       q    Type
REMARK                         _______ _______ _______ _____ _____    ______ ____
ROOT
ATOM      1  O   HOH     1      19.574  19.600   4.284  0.00  0.00    +0.000 OA
ENDROOT
TORSDOF 0
REMARK  Name = ../refined-set-2016/7upj/7upj_pocket.pdb
REMARK  182 active torsions:
REMARK  status: ('A' for Active; 'I' for Inactive)
REMARK    1  A    between atoms: _1  and  _3
REMARK    2  A    between atoms: _3  and  _4
REMARK    3  A    between atoms: _3  and  _6
REMARK    4  A    between atoms: _6  and  _7
REMARK    5  A    between atoms: _7  and  _8
REMARK    6  A    between atoms: _8  and  _9
REMARK    7  A    between atoms: _18  and  _20
REMARK    8  A    between atoms: _20  and  _21
REMARK    9  A    between atoms: _20  and  _23
REMARK   10  A    between atoms: _23  and  _24
REMARK   11  A    between atoms: _27  and  _29
REMARK   12  A    between atoms: _29  and  _30
REMARK   13  A    between atoms: _29  and  _32
REMARK   14  A    between atoms: _32  and  _33
REMARK   15  A    between atoms: _36  and  _38
REMARK   16  A    between atoms: _38  and  _39
REMARK   17  A    between atoms: _38  and  _41
REMARK   18  A    between atoms: _41  and  _42
REMARK   19  A    between atoms: _45  and  _47
REMARK   20  A    between atoms: _47  and  _48
REMARK   21  A    between atoms: _47  and  _50
REMARK   22  A    between atoms: _50  and  _51
REMARK   23  A    between atoms: _54  and  _56
REMARK   24  A    between atoms: _56  and  _57
REMARK   25  A    between atoms: _59  and  _61
REMARK   26  A    between atoms: _61  and  _62
REMARK   27  A    between atoms: _65  and  _67
REMARK   28  A    between atoms: _67  and  _68
REMARK   29  A    between atoms: _67  and  _70
REMARK   30  A    between atoms: _70  and  _71
REMARK   31  A    between atoms: _74  and  _76
REMARK   32  A    between atoms: _76  and  _77
REMARK   33  A    between atoms: _76  and  _79
REMARK   34  A    between atoms: _79  and  _80
REMARK   35  A    between atoms: _83  and  _85
REMARK   36  A    between atoms: _85  and  _86
REMARK   37  A    between atoms: _85  and  _88
REMARK   38  A    between atoms: _88  and  _89
REMARK   39  A    between atoms: _92  and  _94
REMARK   40  A    between atoms: _94  and  _95
REMARK   41  A    between atoms: _94  and  _97
REMARK   42  A    between atoms: _100  and  _102
REMARK   43  A    between atoms: _102  and  _103
REMARK   44  A    between atoms: _102  and  _105
REMARK   45  A    between atoms: _105  and  _106
REMARK   46  A    between atoms: _106  and  _107
REMARK   47  A    between atoms: _107  and  _108
REMARK   48  A    between atoms: _108  and  _109
REMARK   49  A    between atoms: _113  and  _115
REMARK   50  A    between atoms: _115  and  _116
REMARK   51  A    between atoms: _115  and  _118
REMARK   52  A    between atoms: _118  and  _119
REMARK   53  A    between atoms: _119  and  _120
REMARK   54  A    between atoms: _122  and  _124
REMARK   55  A    between atoms: _124  and  _125
REMARK   56  A    between atoms: _124  and  _127
REMARK   57  A    between atoms: _127  and  _128
REMARK   58  A    between atoms: _131  and  _133
REMARK   59  A    between atoms: _133  and  _134
REMARK   60  A    between atoms: _136  and  _138
REMARK   61  A    between atoms: _138  and  _139
REMARK   62  A    between atoms: _141  and  _143
REMARK   63  A    between atoms: _143  and  _144
REMARK   64  A    between atoms: _143  and  _146
REMARK   65  A    between atoms: _146  and  _147
REMARK   66  A    between atoms: _150  and  _152
REMARK   67  A    between atoms: _152  and  _153
REMARK   68  A    between atoms: _155  and  _157
REMARK   69  A    between atoms: _157  and  _158
REMARK   70  A    between atoms: _160  and  _162
REMARK   71  A    between atoms: _162  and  _163
REMARK   72  A    between atoms: _162  and  _165
REMARK   73  A    between atoms: _165  and  _166
REMARK   74  A    between atoms: _172  and  _174
REMARK   75  A    between atoms: _174  and  _175
REMARK   76  A    between atoms: _174  and  _177
REMARK   77  A    between atoms: _177  and  _178
REMARK   78  A    between atoms: _181  and  _183
REMARK   79  A    between atoms: _183  and  _184
REMARK   80  A    between atoms: _183  and  _186
REMARK   81  A    between atoms: _186  and  _187
REMARK   82  A    between atoms: _190  and  _192
REMARK   83  A    between atoms: _192  and  _193
REMARK   84  A    between atoms: _192  and  _195
REMARK   85  A    between atoms: _195  and  _196
REMARK   86  A    between atoms: _200  and  _201
REMARK   87  A    between atoms: _206  and  _208
REMARK   88  A    between atoms: _208  and  _209
REMARK   89  A    between atoms: _208  and  _211
REMARK   90  A    between atoms: _214  and  _216
REMARK   91  A    between atoms: _216  and  _217
REMARK   92  A    between atoms: _216  and  _219
REMARK   93  A    between atoms: _219  and  _220
REMARK   94  A    between atoms: _225  and  _227
REMARK   95  A    between atoms: _227  and  _228
REMARK   96  A    between atoms: _227  and  _230
REMARK   97  A    between atoms: _230  and  _231
REMARK   98  A    between atoms: _234  and  _236
REMARK   99  A    between atoms: _236  and  _237
REMARK  100  A    between atoms: _236  and  _239
REMARK  101  A    between atoms: _239  and  _240
REMARK  102  A    between atoms: _243  and  _245
REMARK  103  A    between atoms: _245  and  _246
REMARK  104  A    between atoms: _248  and  _250
REMARK  105  A    between atoms: _250  and  _251
REMARK  106  A    between atoms: _250  and  _253
REMARK  107  A    between atoms: _253  and  _254
REMARK  108  A    between atoms: _254  and  _255
REMARK  109  A    between atoms: _255  and  _256
REMARK  110  A    between atoms: _265  and  _267
REMARK  111  A    between atoms: _267  and  _268
REMARK  112  A    between atoms: _267  and  _270
REMARK  113  A    between atoms: _270  and  _271
REMARK  114  A    between atoms: _271  and  _272
REMARK  115  A    between atoms: _272  and  _273
REMARK  116  A    between atoms: _282  and  _284
REMARK  117  A    between atoms: _284  and  _285
REMARK  118  A    between atoms: _284  and  _287
REMARK  119  A    between atoms: _287  and  _288
REMARK  120  A    between atoms: _291  and  _293
REMARK  121  A    between atoms: _293  and  _294
REMARK  122  A    between atoms: _293  and  _296
REMARK  123  A    between atoms: _296  and  _297
REMARK  124  A    between atoms: _300  and  _302
REMARK  125  A    between atoms: _302  and  _303
REMARK  126  A    between atoms: _302  and  _305
REMARK  127  A    between atoms: _305  and  _306
REMARK  128  A    between atoms: _309  and  _311
REMARK  129  A    between atoms: _311  and  _312
REMARK  130  A    between atoms: _311  and  _314
REMARK  131  A    between atoms: _314  and  _315
REMARK  132  A    between atoms: _318  and  _320
REMARK  133  A    between atoms: _320  and  _321
REMARK  134  A    between atoms: _323  and  _325
REMARK  135  A    between atoms: _325  and  _326
REMARK  136  A    between atoms: _329  and  _331
REMARK  137  A    between atoms: _331  and  _332
REMARK  138  A    between atoms: _331  and  _334
REMARK  139  A    between atoms: _334  and  _335
REMARK  140  A    between atoms: _338  and  _340
REMARK  141  A    between atoms: _340  and  _341
REMARK  142  A    between atoms: _340  and  _343
REMARK  143  A    between atoms: _343  and  _344
REMARK  144  A    between atoms: _347  and  _349
REMARK  145  A    between atoms: _349  and  _350
REMARK  146  A    between atoms: _349  and  _352
REMARK  147  A    between atoms: _355  and  _357
REMARK  148  A    between atoms: _357  and  _358
REMARK  149  A    between atoms: _357  and  _360
REMARK  150  A    between atoms: _360  and  _361
REMARK  151  A    between atoms: _364  and  _366
REMARK  152  A    between atoms: _366  and  _367
REMARK  153  A    between atoms: _369  and  _371
REMARK  154  A    between atoms: _371  and  _372
REMARK  155  A    between atoms: _374  and  _376
REMARK  156  A    between atoms: _376  and  _377
REMARK  157  A    between atoms: _376  and  _379
REMARK  158  A    between atoms: _379  and  _380
REMARK  159  A    between atoms: _383  and  _385
REMARK  160  A    between atoms: _385  and  _386
REMARK  161  A    between atoms: _388  and  _390
REMARK  162  A    between atoms: _390  and  _391
REMARK  163  A    between atoms: _393  and  _395
REMARK  164  A    between atoms: _395  and  _396
REMARK  165  A    between atoms: _395  and  _398
REMARK  166  A    between atoms: _398  and  _399
REMARK  167  A    between atoms: _403  and  _404
REMARK  168  A    between atoms: _409  and  _411
REMARK  169  A    between atoms: _411  and  _412
REMARK  170  A    between atoms: _411  and  _414
REMARK  171  A    between atoms: _417  and  _419
REMARK  172  A    between atoms: _419  and  _420
REMARK  173  A    between atoms: _419  and  _422
REMARK  174  A    between atoms: _422  and  _423
REMARK  175  A    between atoms: _428  and  _430
REMARK  176  A    between atoms: _430  and  _431
REMARK  177  A    between atoms: _430  and  _433
REMARK  178  A    between atoms: _433  and  _434
REMARK  179  A    between atoms: _437  and  _439
REMARK  180  A    between atoms: _439  and  _440
REMARK  181  A    between atoms: _439  and  _442
REMARK  182  A    between atoms: _442  and  _443
REMARK                            x       y       z     vdW  Elec       q    Type
REMARK                         _______ _______ _______ _____ _____    ______ ____
ROOT
ATOM      1  O   HOH     1      13.956  16.874  12.383  0.00  0.00    +0.000 OA
ENDROOT
TORSDOF 0
REMARK  Name = ../refined-set-2016/7upj/7upj_pocket.pdb
REMARK  182 active torsions:
REMARK  status: ('A' for Active; 'I' for Inactive)
REMARK    1  A    between atoms: _1  and  _3
REMARK    2  A    between atoms: _3  and  _4
REMARK    3  A    between atoms: _3  and  _6
REMARK    4  A    between atoms: _6  and  _7
REMARK    5  A    between atoms: _7  and  _8
REMARK    6  A    between atoms: _8  and  _9
REMARK    7  A    between atoms: _18  and  _20
REMARK    8  A    between atoms: _20  and  _21
REMARK    9  A    between atoms: _20  and  _23
REMARK   10  A    between atoms: _23  and  _24
REMARK   11  A    between atoms: _27  and  _29
REMARK   12  A    between atoms: _29  and  _30
REMARK   13  A    between atoms: _29  and  _32
REMARK   14  A    between atoms: _32  and  _33
REMARK   15  A    between atoms: _36  and  _38
REMARK   16  A    between atoms: _38  and  _39
REMARK   17  A    between atoms: _38  and  _41
REMARK   18  A    between atoms: _41  and  _42
REMARK   19  A    between atoms: _45  and  _47
REMARK   20  A    between atoms: _47  and  _48
REMARK   21  A    between atoms: _47  and  _50
REMARK   22  A    between atoms: _50  and  _51
REMARK   23  A    between atoms: _54  and  _56
REMARK   24  A    between atoms: _56  and  _57
REMARK   25  A    between atoms: _59  and  _61
REMARK   26  A    between atoms: _61  and  _62
REMARK   27  A    between atoms: _65  and  _67
REMARK   28  A    between atoms: _67  and  _68
REMARK   29  A    between atoms: _67  and  _70
REMARK   30  A    between atoms: _70  and  _71
REMARK   31  A    between atoms: _74  and  _76
REMARK   32  A    between atoms: _76  and  _77
REMARK   33  A    between atoms: _76  and  _79
REMARK   34  A    between atoms: _79  and  _80
REMARK   35  A    between atoms: _83  and  _85
REMARK   36  A    between atoms: _85  and  _86
REMARK   37  A    between atoms: _85  and  _88
REMARK   38  A    between atoms: _88  and  _89
REMARK   39  A    between atoms: _92  and  _94
REMARK   40  A    between atoms: _94  and  _95
REMARK   41  A    between atoms: _94  and  _97
REMARK   42  A    between atoms: _100  and  _102
REMARK   43  A    between atoms: _102  and  _103
REMARK   44  A    between atoms: _102  and  _105
REMARK   45  A    between atoms: _105  and  _106
REMARK   46  A    between atoms: _106  and  _107
REMARK   47  A    between atoms: _107  and  _108
REMARK   48  A    between atoms: _108  and  _109
REMARK   49  A    between atoms: _113  and  _115
REMARK   50  A    between atoms: _115  and  _116
REMARK   51  A    between atoms: _115  and  _118
REMARK   52  A    between atoms: _118  and  _119
REMARK   53  A    between atoms: _119  and  _120
REMARK   54  A    between atoms: _122  and  _124
REMARK   55  A    between atoms: _124  and  _125
REMARK   56  A    between atoms: _124  and  _127
REMARK   57  A    between atoms: _127  and  _128
REMARK   58  A    between atoms: _131  and  _133
REMARK   59  A    between atoms: _133  and  _134
REMARK   60  A    between atoms: _136  and  _138
REMARK   61  A    between atoms: _138  and  _139
REMARK   62  A    between atoms: _141  and  _143
REMARK   63  A    between atoms: _143  and  _144
REMARK   64  A    between atoms: _143  and  _146
REMARK   65  A    between atoms: _146  and  _147
REMARK   66  A    between atoms: _150  and  _152
REMARK   67  A    between atoms: _152  and  _153
REMARK   68  A    between atoms: _155  and  _157
REMARK   69  A    between atoms: _157  and  _158
REMARK   70  A    between atoms: _160  and  _162
REMARK   71  A    between atoms: _162  and  _163
REMARK   72  A    between atoms: _162  and  _165
REMARK   73  A    between atoms: _165  and  _166
REMARK   74  A    between atoms: _172  and  _174
REMARK   75  A    between atoms: _174  and  _175
REMARK   76  A    between atoms: _174  and  _177
REMARK   77  A    between atoms: _177  and  _178
REMARK   78  A    between atoms: _181  and  _183
REMARK   79  A    between atoms: _183  and  _184
REMARK   80  A    between atoms: _183  and  _186
REMARK   81  A    between atoms: _186  and  _187
REMARK   82  A    between atoms: _190  and  _192
REMARK   83  A    between atoms: _192  and  _193
REMARK   84  A    between atoms: _192  and  _195
REMARK   85  A    between atoms: _195  and  _196
REMARK   86  A    between atoms: _200  and  _201
REMARK   87  A    between atoms: _206  and  _208
REMARK   88  A    between atoms: _208  and  _209
REMARK   89  A    between atoms: _208  and  _211
REMARK   90  A    between atoms: _214  and  _216
REMARK   91  A    between atoms: _216  and  _217
REMARK   92  A    between atoms: _216  and  _219
REMARK   93  A    between atoms: _219  and  _220
REMARK   94  A    between atoms: _225  and  _227
REMARK   95  A    between atoms: _227  and  _228
REMARK   96  A    between atoms: _227  and  _230
REMARK   97  A    between atoms: _230  and  _231
REMARK   98  A    between atoms: _234  and  _236
REMARK   99  A    between atoms: _236  and  _237
REMARK  100  A    between atoms: _236  and  _239
REMARK  101  A    between atoms: _239  and  _240
REMARK  102  A    between atoms: _243  and  _245
REMARK  103  A    between atoms: _245  and  _246
REMARK  104  A    between atoms: _248  and  _250
REMARK  105  A    between atoms: _250  and  _251
REMARK  106  A    between atoms: _250  and  _253
REMARK  107  A    between atoms: _253  and  _254
REMARK  108  A    between atoms: _254  and  _255
REMARK  109  A    between atoms: _255  and  _256
REMARK  110  A    between atoms: _265  and  _267
REMARK  111  A    between atoms: _267  and  _268
REMARK  112  A    between atoms: _267  and  _270
REMARK  113  A    between atoms: _270  and  _271
REMARK  114  A    between atoms: _271  and  _272
REMARK  115  A    between atoms: _272  and  _273
REMARK  116  A    between atoms: _282  and  _284
REMARK  117  A    between atoms: _284  and  _285
REMARK  118  A    between atoms: _284  and  _287
REMARK  119  A    between atoms: _287  and  _288
REMARK  120  A    between atoms: _291  and  _293
REMARK  121  A    between atoms: _293  and  _294
REMARK  122  A    between atoms: _293  and  _296
REMARK  123  A    between atoms: _296  and  _297
REMARK  124  A    between atoms: _300  and  _302
REMARK  125  A    between atoms: _302  and  _303
REMARK  126  A    between atoms: _302  and  _305
REMARK  127  A    between atoms: _305  and  _306
REMARK  128  A    between atoms: _309  and  _311
REMARK  129  A    between atoms: _311  and  _312
REMARK  130  A    between atoms: _311  and  _314
REMARK  131  A    between atoms: _314  and  _315
REMARK  132  A    between atoms: _318  and  _320
REMARK  133  A    between atoms: _320  and  _321
REMARK  134  A    between atoms: _323  and  _325
REMARK  135  A    between atoms: _325  and  _326
REMARK  136  A    between atoms: _329  and  _331
REMARK  137  A    between atoms: _331  and  _332
REMARK  138  A    between atoms: _331  and  _334
REMARK  139  A    between atoms: _334  and  _335
REMARK  140  A    between atoms: _338  and  _340
REMARK  141  A    between atoms: _340  and  _341
REMARK  142  A    between atoms: _340  and  _343
REMARK  143  A    between atoms: _343  and  _344
REMARK  144  A    between atoms: _347  and  _349
REMARK  145  A    between atoms: _349  and  _350
REMARK  146  A    between atoms: _349  and  _352
REMARK  147  A    between atoms: _355  and  _357
REMARK  148  A    between atoms: _357  and  _358
REMARK  149  A    between atoms: _357  and  _360
REMARK  150  A    between atoms: _360  and  _361
REMARK  151  A    between atoms: _364  and  _366
REMARK  152  A    between atoms: _366  and  _367
REMARK  153  A    between atoms: _369  and  _371
REMARK  154  A    between atoms: _371  and  _372
REMARK  155  A    between atoms: _374  and  _376
REMARK  156  A    between atoms: _376  and  _377
REMARK  157  A    between atoms: _376  and  _379
REMARK  158  A    between atoms: _379  and  _380
REMARK  159  A    between atoms: _383  and  _385
REMARK  160  A    between atoms: _385  and  _386
REMARK  161  A    between atoms: _388  and  _390
REMARK  162  A    between atoms: _390  and  _391
REMARK  163  A    between atoms: _393  and  _395
REMARK  164  A    between atoms: _395  and  _396
REMARK  165  A    between atoms: _395  and  _398
REMARK  166  A    between atoms: _398  and  _399
REMARK  167  A    between atoms: _403  and  _404
REMARK  168  A    between atoms: _409  and  _411
REMARK  169  A    between atoms: _411  and  _412
REMARK  170  A    between atoms: _411  and  _414
REMARK  171  A    between atoms: _417  and  _419
REMARK  172  A    between atoms: _419  and  _420
REMARK  173  A    between atoms: _419  and  _422
REMARK  174  A    between atoms: _422  and  _423
REMARK  175  A    between atoms: _428  and  _430
REMARK  176  A    between atoms: _430  and  _431
REMARK  177  A    between atoms: _430  and  _433
REMARK  178  A    between atoms: _433  and  _434
REMARK  179  A    between atoms: _437  and  _439
REMARK  180  A    between atoms: _439  and  _440
REMARK  181  A    between atoms: _439  and  _442
REMARK  182  A    between atoms: _442  and  _443
REMARK                            x       y       z     vdW  Elec       q    Type
REMARK                         _______ _______ _______ _____ _____    ______ ____
ROOT
ATOM      1  O   HOH     1      18.437  18.461   6.119  0.00  0.00    +0.000 OA
ENDROOT
TORSDOF 0
REMARK  Name = ../refined-set-2016/7upj/7upj_pocket.pdb
REMARK  182 active torsions:
REMARK  status: ('A' for Active; 'I' for Inactive)
REMARK    1  A    between atoms: _1  and  _3
REMARK    2  A    between atoms: _3  and  _4
REMARK    3  A    between atoms: _3  and  _6
REMARK    4  A    between atoms: _6  and  _7
REMARK    5  A    between atoms: _7  and  _8
REMARK    6  A    between atoms: _8  and  _9
REMARK    7  A    between atoms: _18  and  _20
REMARK    8  A    between atoms: _20  and  _21
REMARK    9  A    between atoms: _20  and  _23
REMARK   10  A    between atoms: _23  and  _24
REMARK   11  A    between atoms: _27  and  _29
REMARK   12  A    between atoms: _29  and  _30
REMARK   13  A    between atoms: _29  and  _32
REMARK   14  A    between atoms: _32  and  _33
REMARK   15  A    between atoms: _36  and  _38
REMARK   16  A    between atoms: _38  and  _39
REMARK   17  A    between atoms: _38  and  _41
REMARK   18  A    between atoms: _41  and  _42
REMARK   19  A    between atoms: _45  and  _47
REMARK   20  A    between atoms: _47  and  _48
REMARK   21  A    between atoms: _47  and  _50
REMARK   22  A    between atoms: _50  and  _51
REMARK   23  A    between atoms: _54  and  _56
REMARK   24  A    between atoms: _56  and  _57
REMARK   25  A    between atoms: _59  and  _61
REMARK   26  A    between atoms: _61  and  _62
REMARK   27  A    between atoms: _65  and  _67
REMARK   28  A    between atoms: _67  and  _68
REMARK   29  A    between atoms: _67  and  _70
REMARK   30  A    between atoms: _70  and  _71
REMARK   31  A    between atoms: _74  and  _76
REMARK   32  A    between atoms: _76  and  _77
REMARK   33  A    between atoms: _76  and  _79
REMARK   34  A    between atoms: _79  and  _80
REMARK   35  A    between atoms: _83  and  _85
REMARK   36  A    between atoms: _85  and  _86
REMARK   37  A    between atoms: _85  and  _88
REMARK   38  A    between atoms: _88  and  _89
REMARK   39  A    between atoms: _92  and  _94
REMARK   40  A    between atoms: _94  and  _95
REMARK   41  A    between atoms: _94  and  _97
REMARK   42  A    between atoms: _100  and  _102
REMARK   43  A    between atoms: _102  and  _103
REMARK   44  A    between atoms: _102  and  _105
REMARK   45  A    between atoms: _105  and  _106
REMARK   46  A    between atoms: _106  and  _107
REMARK   47  A    between atoms: _107  and  _108
REMARK   48  A    between atoms: _108  and  _109
REMARK   49  A    between atoms: _113  and  _115
REMARK   50  A    between atoms: _115  and  _116
REMARK   51  A    between atoms: _115  and  _118
REMARK   52  A    between atoms: _118  and  _119
REMARK   53  A    between atoms: _119  and  _120
REMARK   54  A    between atoms: _122  and  _124
REMARK   55  A    between atoms: _124  and  _125
REMARK   56  A    between atoms: _124  and  _127
REMARK   57  A    between atoms: _127  and  _128
REMARK   58  A    between atoms: _131  and  _133
REMARK   59  A    between atoms: _133  and  _134
REMARK   60  A    between atoms: _136  and  _138
REMARK   61  A    between atoms: _138  and  _139
REMARK   62  A    between atoms: _141  and  _143
REMARK   63  A    between atoms: _143  and  _144
REMARK   64  A    between atoms: _143  and  _146
REMARK   65  A    between atoms: _146  and  _147
REMARK   66  A    between atoms: _150  and  _152
REMARK   67  A    between atoms: _152  and  _153
REMARK   68  A    between atoms: _155  and  _157
REMARK   69  A    between atoms: _157  and  _158
REMARK   70  A    between atoms: _160  and  _162
REMARK   71  A    between atoms: _162  and  _163
REMARK   72  A    between atoms: _162  and  _165
REMARK   73  A    between atoms: _165  and  _166
REMARK   74  A    between atoms: _172  and  _174
REMARK   75  A    between atoms: _174  and  _175
REMARK   76  A    between atoms: _174  and  _177
REMARK   77  A    between atoms: _177  and  _178
REMARK   78  A    between atoms: _181  and  _183
REMARK   79  A    between atoms: _183  and  _184
REMARK   80  A    between atoms: _183  and  _186
REMARK   81  A    between atoms: _186  and  _187
REMARK   82  A    between atoms: _190  and  _192
REMARK   83  A    between atoms: _192  and  _193
REMARK   84  A    between atoms: _192  and  _195
REMARK   85  A    between atoms: _195  and  _196
REMARK   86  A    between atoms: _200  and  _201
REMARK   87  A    between atoms: _206  and  _208
REMARK   88  A    between atoms: _208  and  _209
REMARK   89  A    between atoms: _208  and  _211
REMARK   90  A    between atoms: _214  and  _216
REMARK   91  A    between atoms: _216  and  _217
REMARK   92  A    between atoms: _216  and  _219
REMARK   93  A    between atoms: _219  and  _220
REMARK   94  A    between atoms: _225  and  _227
REMARK   95  A    between atoms: _227  and  _228
REMARK   96  A    between atoms: _227  and  _230
REMARK   97  A    between atoms: _230  and  _231
REMARK   98  A    between atoms: _234  and  _236
REMARK   99  A    between atoms: _236  and  _237
REMARK  100  A    between atoms: _236  and  _239
REMARK  101  A    between atoms: _239  and  _240
REMARK  102  A    between atoms: _243  and  _245
REMARK  103  A    between atoms: _245  and  _246
REMARK  104  A    between atoms: _248  and  _250
REMARK  105  A    between atoms: _250  and  _251
REMARK  106  A    between atoms: _250  and  _253
REMARK  107  A    between atoms: _253  and  _254
REMARK  108  A    between atoms: _254  and  _255
REMARK  109  A    between atoms: _255  and  _256
REMARK  110  A    between atoms: _265  and  _267
REMARK  111  A    between atoms: _267  and  _268
REMARK  112  A    between atoms: _267  and  _270
REMARK  113  A    between atoms: _270  and  _271
REMARK  114  A    between atoms: _271  and  _272
REMARK  115  A    between atoms: _272  and  _273
REMARK  116  A    between atoms: _282  and  _284
REMARK  117  A    between atoms: _284  and  _285
REMARK  118  A    between atoms: _284  and  _287
REMARK  119  A    between atoms: _287  and  _288
REMARK  120  A    between atoms: _291  and  _293
REMARK  121  A    between atoms: _293  and  _294
REMARK  122  A    between atoms: _293  and  _296
REMARK  123  A    between atoms: _296  and  _297
REMARK  124  A    between atoms: _300  and  _302
REMARK  125  A    between atoms: _302  and  _303
REMARK  126  A    between atoms: _302  and  _305
REMARK  127  A    between atoms: _305  and  _306
REMARK  128  A    between atoms: _309  and  _311
REMARK  129  A    between atoms: _311  and  _312
REMARK  130  A    between atoms: _311  and  _314
REMARK  131  A    between atoms: _314  and  _315
REMARK  132  A    between atoms: _318  and  _320
REMARK  133  A    between atoms: _320  and  _321
REMARK  134  A    between atoms: _323  and  _325
REMARK  135  A    between atoms: _325  and  _326
REMARK  136  A    between atoms: _329  and  _331
REMARK  137  A    between atoms: _331  and  _332
REMARK  138  A    between atoms: _331  and  _334
REMARK  139  A    between atoms: _334  and  _335
REMARK  140  A    between atoms: _338  and  _340
REMARK  141  A    between atoms: _340  and  _341
REMARK  142  A    between atoms: _340  and  _343
REMARK  143  A    between atoms: _343  and  _344
REMARK  144  A    between atoms: _347  and  _349
REMARK  145  A    between atoms: _349  and  _350
REMARK  146  A    between atoms: _349  and  _352
REMARK  147  A    between atoms: _355  and  _357
REMARK  148  A    between atoms: _357  and  _358
REMARK  149  A    between atoms: _357  and  _360
REMARK  150  A    between atoms: _360  and  _361
REMARK  151  A    between atoms: _364  and  _366
REMARK  152  A    between atoms: _366  and  _367
REMARK  153  A    between atoms: _369  and  _371
REMARK  154  A    between atoms: _371  and  _372
REMARK  155  A    between atoms: _374  and  _376
REMARK  156  A    between atoms: _376  and  _377
REMARK  157  A    between atoms: _376  and  _379
REMARK  158  A    between atoms: _379  and  _380
REMARK  159  A    between atoms: _383  and  _385
REMARK  160  A    between atoms: _385  and  _386
REMARK  161  A    between atoms: _388  and  _390
REMARK  162  A    between atoms: _390  and  _391
REMARK  163  A    between atoms: _393  and  _395
REMARK  164  A    between atoms: _395  and  _396
REMARK  165  A    between atoms: _395  and  _398
REMARK  166  A    between atoms: _398  and  _399
REMARK  167  A    between atoms: _403  and  _404
REMARK  168  A    between atoms: _409  and  _411
REMARK  169  A    between atoms: _411  and  _412
REMARK  170  A    between atoms: _411  and  _414
REMARK  171  A    between atoms: _417  and  _419
REMARK  172  A    between atoms: _419  and  _420
REMARK  173  A    between atoms: _419  and  _422
REMARK  174  A    between atoms: _422  and  _423
REMARK  175  A    between atoms: _428  and  _430
REMARK  176  A    between atoms: _430  and  _431
REMARK  177  A    between atoms: _430  and  _433
REMARK  178  A    between atoms: _433  and  _434
REMARK  179  A    between atoms: _437  and  _439
REMARK  180  A    between atoms: _439  and  _440
REMARK  181  A    between atoms: _439  and  _442
REMARK  182  A    between atoms: _442  and  _443
REMARK                            x       y       z     vdW  Elec       q    Type
REMARK                         _______ _______ _______ _____ _____    ______ ____
ROOT
ATOM      1  O   HOH     1      19.041  15.021   7.880  0.00  0.00    +0.000 OA
ENDROOT
TORSDOF 0
REMARK  Name = ../refined-set-2016/7upj/7upj_pocket.pdb
REMARK  182 active torsions:
REMARK  status: ('A' for Active; 'I' for Inactive)
REMARK    1  A    between atoms: _1  and  _3
REMARK    2  A    between atoms: _3  and  _4
REMARK    3  A    between atoms: _3  and  _6
REMARK    4  A    between atoms: _6  and  _7
REMARK    5  A    between atoms: _7  and  _8
REMARK    6  A    between atoms: _8  and  _9
REMARK    7  A    between atoms: _18  and  _20
REMARK    8  A    between atoms: _20  and  _21
REMARK    9  A    between atoms: _20  and  _23
REMARK   10  A    between atoms: _23  and  _24
REMARK   11  A    between atoms: _27  and  _29
REMARK   12  A    between atoms: _29  and  _30
REMARK   13  A    between atoms: _29  and  _32
REMARK   14  A    between atoms: _32  and  _33
REMARK   15  A    between atoms: _36  and  _38
REMARK   16  A    between atoms: _38  and  _39
REMARK   17  A    between atoms: _38  and  _41
REMARK   18  A    between atoms: _41  and  _42
REMARK   19  A    between atoms: _45  and  _47
REMARK   20  A    between atoms: _47  and  _48
REMARK   21  A    between atoms: _47  and  _50
REMARK   22  A    between atoms: _50  and  _51
REMARK   23  A    between atoms: _54  and  _56
REMARK   24  A    between atoms: _56  and  _57
REMARK   25  A    between atoms: _59  and  _61
REMARK   26  A    between atoms: _61  and  _62
REMARK   27  A    between atoms: _65  and  _67
REMARK   28  A    between atoms: _67  and  _68
REMARK   29  A    between atoms: _67  and  _70
REMARK   30  A    between atoms: _70  and  _71
REMARK   31  A    between atoms: _74  and  _76
REMARK   32  A    between atoms: _76  and  _77
REMARK   33  A    between atoms: _76  and  _79
REMARK   34  A    between atoms: _79  and  _80
REMARK   35  A    between atoms: _83  and  _85
REMARK   36  A    between atoms: _85  and  _86
REMARK   37  A    between atoms: _85  and  _88
REMARK   38  A    between atoms: _88  and  _89
REMARK   39  A    between atoms: _92  and  _94
REMARK   40  A    between atoms: _94  and  _95
REMARK   41  A    between atoms: _94  and  _97
REMARK   42  A    between atoms: _100  and  _102
REMARK   43  A    between atoms: _102  and  _103
REMARK   44  A    between atoms: _102  and  _105
REMARK   45  A    between atoms: _105  and  _106
REMARK   46  A    between atoms: _106  and  _107
REMARK   47  A    between atoms: _107  and  _108
REMARK   48  A    between atoms: _108  and  _109
REMARK   49  A    between atoms: _113  and  _115
REMARK   50  A    between atoms: _115  and  _116
REMARK   51  A    between atoms: _115  and  _118
REMARK   52  A    between atoms: _118  and  _119
REMARK   53  A    between atoms: _119  and  _120
REMARK   54  A    between atoms: _122  and  _124
REMARK   55  A    between atoms: _124  and  _125
REMARK   56  A    between atoms: _124  and  _127
REMARK   57  A    between atoms: _127  and  _128
REMARK   58  A    between atoms: _131  and  _133
REMARK   59  A    between atoms: _133  and  _134
REMARK   60  A    between atoms: _136  and  _138
REMARK   61  A    between atoms: _138  and  _139
REMARK   62  A    between atoms: _141  and  _143
REMARK   63  A    between atoms: _143  and  _144
REMARK   64  A    between atoms: _143  and  _146
REMARK   65  A    between atoms: _146  and  _147
REMARK   66  A    between atoms: _150  and  _152
REMARK   67  A    between atoms: _152  and  _153
REMARK   68  A    between atoms: _155  and  _157
REMARK   69  A    between atoms: _157  and  _158
REMARK   70  A    between atoms: _160  and  _162
REMARK   71  A    between atoms: _162  and  _163
REMARK   72  A    between atoms: _162  and  _165
REMARK   73  A    between atoms: _165  and  _166
REMARK   74  A    between atoms: _172  and  _174
REMARK   75  A    between atoms: _174  and  _175
REMARK   76  A    between atoms: _174  and  _177
REMARK   77  A    between atoms: _177  and  _178
REMARK   78  A    between atoms: _181  and  _183
REMARK   79  A    between atoms: _183  and  _184
REMARK   80  A    between atoms: _183  and  _186
REMARK   81  A    between atoms: _186  and  _187
REMARK   82  A    between atoms: _190  and  _192
REMARK   83  A    between atoms: _192  and  _193
REMARK   84  A    between atoms: _192  and  _195
REMARK   85  A    between atoms: _195  and  _196
REMARK   86  A    between atoms: _200  and  _201
REMARK   87  A    between atoms: _206  and  _208
REMARK   88  A    between atoms: _208  and  _209
REMARK   89  A    between atoms: _208  and  _211
REMARK   90  A    between atoms: _214  and  _216
REMARK   91  A    between atoms: _216  and  _217
REMARK   92  A    between atoms: _216  and  _219
REMARK   93  A    between atoms: _219  and  _220
REMARK   94  A    between atoms: _225  and  _227
REMARK   95  A    between atoms: _227  and  _228
REMARK   96  A    between atoms: _227  and  _230
REMARK   97  A    between atoms: _230  and  _231
REMARK   98  A    between atoms: _234  and  _236
REMARK   99  A    between atoms: _236  and  _237
REMARK  100  A    between atoms: _236  and  _239
REMARK  101  A    between atoms: _239  and  _240
REMARK  102  A    between atoms: _243  and  _245
REMARK  103  A    between atoms: _245  and  _246
REMARK  104  A    between atoms: _248  and  _250
REMARK  105  A    between atoms: _250  and  _251
REMARK  106  A    between atoms: _250  and  _253
REMARK  107  A    between atoms: _253  and  _254
REMARK  108  A    between atoms: _254  and  _255
REMARK  109  A    between atoms: _255  and  _256
REMARK  110  A    between atoms: _265  and  _267
REMARK  111  A    between atoms: _267  and  _268
REMARK  112  A    between atoms: _267  and  _270
REMARK  113  A    between atoms: _270  and  _271
REMARK  114  A    between atoms: _271  and  _272
REMARK  115  A    between atoms: _272  and  _273
REMARK  116  A    between atoms: _282  and  _284
REMARK  117  A    between atoms: _284  and  _285
REMARK  118  A    between atoms: _284  and  _287
REMARK  119  A    between atoms: _287  and  _288
REMARK  120  A    between atoms: _291  and  _293
REMARK  121  A    between atoms: _293  and  _294
REMARK  122  A    between atoms: _293  and  _296
REMARK  123  A    between atoms: _296  and  _297
REMARK  124  A    between atoms: _300  and  _302
REMARK  125  A    between atoms: _302  and  _303
REMARK  126  A    between atoms: _302  and  _305
REMARK  127  A    between atoms: _305  and  _306
REMARK  128  A    between atoms: _309  and  _311
REMARK  129  A    between atoms: _311  and  _312
REMARK  130  A    between atoms: _311  and  _314
REMARK  131  A    between atoms: _314  and  _315
REMARK  132  A    between atoms: _318  and  _320
REMARK  133  A    between atoms: _320  and  _321
REMARK  134  A    between atoms: _323  and  _325
REMARK  135  A    between atoms: _325  and  _326
REMARK  136  A    between atoms: _329  and  _331
REMARK  137  A    between atoms: _331  and  _332
REMARK  138  A    between atoms: _331  and  _334
REMARK  139  A    between atoms: _334  and  _335
REMARK  140  A    between atoms: _338  and  _340
REMARK  141  A    between atoms: _340  and  _341
REMARK  142  A    between atoms: _340  and  _343
REMARK  143  A    between atoms: _343  and  _344
REMARK  144  A    between atoms: _347  and  _349
REMARK  145  A    between atoms: _349  and  _350
REMARK  146  A    between atoms: _349  and  _352
REMARK  147  A    between atoms: _355  and  _357
REMARK  148  A    between atoms: _357  and  _358
REMARK  149  A    between atoms: _357  and  _360
REMARK  150  A    between atoms: _360  and  _361
REMARK  151  A    between atoms: _364  and  _366
REMARK  152  A    between atoms: _366  and  _367
REMARK  153  A    between atoms: _369  and  _371
REMARK  154  A    between atoms: _371  and  _372
REMARK  155  A    between atoms: _374  and  _376
REMARK  156  A    between atoms: _376  and  _377
REMARK  157  A    between atoms: _376  and  _379
REMARK  158  A    between atoms: _379  and  _380
REMARK  159  A    between atoms: _383  and  _385
REMARK  160  A    between atoms: _385  and  _386
REMARK  161  A    between atoms: _388  and  _390
REMARK  162  A    between atoms: _390  and  _391
REMARK  163  A    between atoms: _393  and  _395
REMARK  164  A    between atoms: _395  and  _396
REMARK  165  A    between atoms: _395  and  _398
REMARK  166  A    between atoms: _398  and  _399
REMARK  167  A    between atoms: _403  and  _404
REMARK  168  A    between atoms: _409  and  _411
REMARK  169  A    between atoms: _411  and  _412
REMARK  170  A    between atoms: _411  and  _414
REMARK  171  A    between atoms: _417  and  _419
REMARK  172  A    between atoms: _419  and  _420
REMARK  173  A    between atoms: _419  and  _422
REMARK  174  A    between atoms: _422  and  _423
REMARK  175  A    between atoms: _428  and  _430
REMARK  176  A    between atoms: _430  and  _431
REMARK  177  A    between atoms: _430  and  _433
REMARK  178  A    between atoms: _433  and  _434
REMARK  179  A    between atoms: _437  and  _439
REMARK  180  A    between atoms: _439  and  _440
REMARK  181  A    between atoms: _439  and  _442
REMARK  182  A    between atoms: _442  and  _443
REMARK                            x       y       z     vdW  Elec       q    Type
REMARK                         _______ _______ _______ _____ _____    ______ ____
ROOT
ATOM      1  O   HOH     1      16.755  20.010   4.790  0.00  0.00    +0.000 OA
ENDROOT
TORSDOF 0
REMARK  Name = ../refined-set-2016/7upj/7upj_pocket.pdb
REMARK  182 active torsions:
REMARK  status: ('A' for Active; 'I' for Inactive)
REMARK    1  A    between atoms: _1  and  _3
REMARK    2  A    between atoms: _3  and  _4
REMARK    3  A    between atoms: _3  and  _6
REMARK    4  A    between atoms: _6  and  _7
REMARK    5  A    between atoms: _7  and  _8
REMARK    6  A    between atoms: _8  and  _9
REMARK    7  A    between atoms: _18  and  _20
REMARK    8  A    between atoms: _20  and  _21
REMARK    9  A    between atoms: _20  and  _23
REMARK   10  A    between atoms: _23  and  _24
REMARK   11  A    between atoms: _27  and  _29
REMARK   12  A    between atoms: _29  and  _30
REMARK   13  A    between atoms: _29  and  _32
REMARK   14  A    between atoms: _32  and  _33
REMARK   15  A    between atoms: _36  and  _38
REMARK   16  A    between atoms: _38  and  _39
REMARK   17  A    between atoms: _38  and  _41
REMARK   18  A    between atoms: _41  and  _42
REMARK   19  A    between atoms: _45  and  _47
REMARK   20  A    between atoms: _47  and  _48
REMARK   21  A    between atoms: _47  and  _50
REMARK   22  A    between atoms: _50  and  _51
REMARK   23  A    between atoms: _54  and  _56
REMARK   24  A    between atoms: _56  and  _57
REMARK   25  A    between atoms: _59  and  _61
REMARK   26  A    between atoms: _61  and  _62
REMARK   27  A    between atoms: _65  and  _67
REMARK   28  A    between atoms: _67  and  _68
REMARK   29  A    between atoms: _67  and  _70
REMARK   30  A    between atoms: _70  and  _71
REMARK   31  A    between atoms: _74  and  _76
REMARK   32  A    between atoms: _76  and  _77
REMARK   33  A    between atoms: _76  and  _79
REMARK   34  A    between atoms: _79  and  _80
REMARK   35  A    between atoms: _83  and  _85
REMARK   36  A    between atoms: _85  and  _86
REMARK   37  A    between atoms: _85  and  _88
REMARK   38  A    between atoms: _88  and  _89
REMARK   39  A    between atoms: _92  and  _94
REMARK   40  A    between atoms: _94  and  _95
REMARK   41  A    between atoms: _94  and  _97
REMARK   42  A    between atoms: _100  and  _102
REMARK   43  A    between atoms: _102  and  _103
REMARK   44  A    between atoms: _102  and  _105
REMARK   45  A    between atoms: _105  and  _106
REMARK   46  A    between atoms: _106  and  _107
REMARK   47  A    between atoms: _107  and  _108
REMARK   48  A    between atoms: _108  and  _109
REMARK   49  A    between atoms: _113  and  _115
REMARK   50  A    between atoms: _115  and  _116
REMARK   51  A    between atoms: _115  and  _118
REMARK   52  A    between atoms: _118  and  _119
REMARK   53  A    between atoms: _119  and  _120
REMARK   54  A    between atoms: _122  and  _124
REMARK   55  A    between atoms: _124  and  _125
REMARK   56  A    between atoms: _124  and  _127
REMARK   57  A    between atoms: _127  and  _128
REMARK   58  A    between atoms: _131  and  _133
REMARK   59  A    between atoms: _133  and  _134
REMARK   60  A    between atoms: _136  and  _138
REMARK   61  A    between atoms: _138  and  _139
REMARK   62  A    between atoms: _141  and  _143
REMARK   63  A    between atoms: _143  and  _144
REMARK   64  A    between atoms: _143  and  _146
REMARK   65  A    between atoms: _146  and  _147
REMARK   66  A    between atoms: _150  and  _152
REMARK   67  A    between atoms: _152  and  _153
REMARK   68  A    between atoms: _155  and  _157
REMARK   69  A    between atoms: _157  and  _158
REMARK   70  A    between atoms: _160  and  _162
REMARK   71  A    between atoms: _162  and  _163
REMARK   72  A    between atoms: _162  and  _165
REMARK   73  A    between atoms: _165  and  _166
REMARK   74  A    between atoms: _172  and  _174
REMARK   75  A    between atoms: _174  and  _175
REMARK   76  A    between atoms: _174  and  _177
REMARK   77  A    between atoms: _177  and  _178
REMARK   78  A    between atoms: _181  and  _183
REMARK   79  A    between atoms: _183  and  _184
REMARK   80  A    between atoms: _183  and  _186
REMARK   81  A    between atoms: _186  and  _187
REMARK   82  A    between atoms: _190  and  _192
REMARK   83  A    between atoms: _192  and  _193
REMARK   84  A    between atoms: _192  and  _195
REMARK   85  A    between atoms: _195  and  _196
REMARK   86  A    between atoms: _200  and  _201
REMARK   87  A    between atoms: _206  and  _208
REMARK   88  A    between atoms: _208  and  _209
REMARK   89  A    between atoms: _208  and  _211
REMARK   90  A    between atoms: _214  and  _216
REMARK   91  A    between atoms: _216  and  _217
REMARK   92  A    between atoms: _216  and  _219
REMARK   93  A    between atoms: _219  and  _220
REMARK   94  A    between atoms: _225  and  _227
REMARK   95  A    between atoms: _227  and  _228
REMARK   96  A    between atoms: _227  and  _230
REMARK   97  A    between atoms: _230  and  _231
REMARK   98  A    between atoms: _234  and  _236
REMARK   99  A    between atoms: _236  and  _237
REMARK  100  A    between atoms: _236  and  _239
REMARK  101  A    between atoms: _239  and  _240
REMARK  102  A    between atoms: _243  and  _245
REMARK  103  A    between atoms: _245  and  _246
REMARK  104  A    between atoms: _248  and  _250
REMARK  105  A    between atoms: _250  and  _251
REMARK  106  A    between atoms: _250  and  _253
REMARK  107  A    between atoms: _253  and  _254
REMARK  108  A    between atoms: _254  and  _255
REMARK  109  A    between atoms: _255  and  _256
REMARK  110  A    between atoms: _265  and  _267
REMARK  111  A    between atoms: _267  and  _268
REMARK  112  A    between atoms: _267  and  _270
REMARK  113  A    between atoms: _270  and  _271
REMARK  114  A    between atoms: _271  and  _272
REMARK  115  A    between atoms: _272  and  _273
REMARK  116  A    between atoms: _282  and  _284
REMARK  117  A    between atoms: _284  and  _285
REMARK  118  A    between atoms: _284  and  _287
REMARK  119  A    between atoms: _287  and  _288
REMARK  120  A    between atoms: _291  and  _293
REMARK  121  A    between atoms: _293  and  _294
REMARK  122  A    between atoms: _293  and  _296
REMARK  123  A    between atoms: _296  and  _297
REMARK  124  A    between atoms: _300  and  _302
REMARK  125  A    between atoms: _302  and  _303
REMARK  126  A    between atoms: _302  and  _305
REMARK  127  A    between atoms: _305  and  _306
REMARK  128  A    between atoms: _309  and  _311
REMARK  129  A    between atoms: _311  and  _312
REMARK  130  A    between atoms: _311  and  _314
REMARK  131  A    between atoms: _314  and  _315
REMARK  132  A    between atoms: _318  and  _320
REMARK  133  A    between atoms: _320  and  _321
REMARK  134  A    between atoms: _323  and  _325
REMARK  135  A    between atoms: _325  and  _326
REMARK  136  A    between atoms: _329  and  _331
REMARK  137  A    between atoms: _331  and  _332
REMARK  138  A    between atoms: _331  and  _334
REMARK  139  A    between atoms: _334  and  _335
REMARK  140  A    between atoms: _338  and  _340
REMARK  141  A    between atoms: _340  and  _341
REMARK  142  A    between atoms: _340  and  _343
REMARK  143  A    between atoms: _343  and  _344
REMARK  144  A    between atoms: _347  and  _349
REMARK  145  A    between atoms: _349  and  _350
REMARK  146  A    between atoms: _349  and  _352
REMARK  147  A    between atoms: _355  and  _357
REMARK  148  A    between atoms: _357  and  _358
REMARK  149  A    between atoms: _357  and  _360
REMARK  150  A    between atoms: _360  and  _361
REMARK  151  A    between atoms: _364  and  _366
REMARK  152  A    between atoms: _366  and  _367
REMARK  153  A    between atoms: _369  and  _371
REMARK  154  A    between atoms: _371  and  _372
REMARK  155  A    between atoms: _374  and  _376
REMARK  156  A    between atoms: _376  and  _377
REMARK  157  A    between atoms: _376  and  _379
REMARK  158  A    between atoms: _379  and  _380
REMARK  159  A    between atoms: _383  and  _385
REMARK  160  A    between atoms: _385  and  _386
REMARK  161  A    between atoms: _388  and  _390
REMARK  162  A    between atoms: _390  and  _391
REMARK  163  A    between atoms: _393  and  _395
REMARK  164  A    between atoms: _395  and  _396
REMARK  165  A    between atoms: _395  and  _398
REMARK  166  A    between atoms: _398  and  _399
REMARK  167  A    between atoms: _403  and  _404
REMARK  168  A    between atoms: _409  and  _411
REMARK  169  A    between atoms: _411  and  _412
REMARK  170  A    between atoms: _411  and  _414
REMARK  171  A    between atoms: _417  and  _419
REMARK  172  A    between atoms: _419  and  _420
REMARK  173  A    between atoms: _419  and  _422
REMARK  174  A    between atoms: _422  and  _423
REMARK  175  A    between atoms: _428  and  _430
REMARK  176  A    between atoms: _430  and  _431
REMARK  177  A    between atoms: _430  and  _433
REMARK  178  A    between atoms: _433  and  _434
REMARK  179  A    between atoms: _437  and  _439
REMARK  180  A    between atoms: _439  and  _440
REMARK  181  A    between atoms: _439  and  _442
REMARK  182  A    between atoms: _442  and  _443
REMARK                            x       y       z     vdW  Elec       q    Type
REMARK                         _______ _______ _______ _____ _____    ______ ____
ROOT
ATOM      1  O   HOH     1       7.942  24.839  -5.822  0.00  0.00    +0.000 OA
ENDROOT
TORSDOF 0
REMARK  Name = ../refined-set-2016/7upj/7upj_pocket.pdb
REMARK  182 active torsions:
REMARK  status: ('A' for Active; 'I' for Inactive)
REMARK    1  A    between atoms: _1  and  _3
REMARK    2  A    between atoms: _3  and  _4
REMARK    3  A    between atoms: _3  and  _6
REMARK    4  A    between atoms: _6  and  _7
REMARK    5  A    between atoms: _7  and  _8
REMARK    6  A    between atoms: _8  and  _9
REMARK    7  A    between atoms: _18  and  _20
REMARK    8  A    between atoms: _20  and  _21
REMARK    9  A    between atoms: _20  and  _23
REMARK   10  A    between atoms: _23  and  _24
REMARK   11  A    between atoms: _27  and  _29
REMARK   12  A    between atoms: _29  and  _30
REMARK   13  A    between atoms: _29  and  _32
REMARK   14  A    between atoms: _32  and  _33
REMARK   15  A    between atoms: _36  and  _38
REMARK   16  A    between atoms: _38  and  _39
REMARK   17  A    between atoms: _38  and  _41
REMARK   18  A    between atoms: _41  and  _42
REMARK   19  A    between atoms: _45  and  _47
REMARK   20  A    between atoms: _47  and  _48
REMARK   21  A    between atoms: _47  and  _50
REMARK   22  A    between atoms: _50  and  _51
REMARK   23  A    between atoms: _54  and  _56
REMARK   24  A    between atoms: _56  and  _57
REMARK   25  A    between atoms: _59  and  _61
REMARK   26  A    between atoms: _61  and  _62
REMARK   27  A    between atoms: _65  and  _67
REMARK   28  A    between atoms: _67  and  _68
REMARK   29  A    between atoms: _67  and  _70
REMARK   30  A    between atoms: _70  and  _71
REMARK   31  A    between atoms: _74  and  _76
REMARK   32  A    between atoms: _76  and  _77
REMARK   33  A    between atoms: _76  and  _79
REMARK   34  A    between atoms: _79  and  _80
REMARK   35  A    between atoms: _83  and  _85
REMARK   36  A    between atoms: _85  and  _86
REMARK   37  A    between atoms: _85  and  _88
REMARK   38  A    between atoms: _88  and  _89
REMARK   39  A    between atoms: _92  and  _94
REMARK   40  A    between atoms: _94  and  _95
REMARK   41  A    between atoms: _94  and  _97
REMARK   42  A    between atoms: _100  and  _102
REMARK   43  A    between atoms: _102  and  _103
REMARK   44  A    between atoms: _102  and  _105
REMARK   45  A    between atoms: _105  and  _106
REMARK   46  A    between atoms: _106  and  _107
REMARK   47  A    between atoms: _107  and  _108
REMARK   48  A    between atoms: _108  and  _109
REMARK   49  A    between atoms: _113  and  _115
REMARK   50  A    between atoms: _115  and  _116
REMARK   51  A    between atoms: _115  and  _118
REMARK   52  A    between atoms: _118  and  _119
REMARK   53  A    between atoms: _119  and  _120
REMARK   54  A    between atoms: _122  and  _124
REMARK   55  A    between atoms: _124  and  _125
REMARK   56  A    between atoms: _124  and  _127
REMARK   57  A    between atoms: _127  and  _128
REMARK   58  A    between atoms: _131  and  _133
REMARK   59  A    between atoms: _133  and  _134
REMARK   60  A    between atoms: _136  and  _138
REMARK   61  A    between atoms: _138  and  _139
REMARK   62  A    between atoms: _141  and  _143
REMARK   63  A    between atoms: _143  and  _144
REMARK   64  A    between atoms: _143  and  _146
REMARK   65  A    between atoms: _146  and  _147
REMARK   66  A    between atoms: _150  and  _152
REMARK   67  A    between atoms: _152  and  _153
REMARK   68  A    between atoms: _155  and  _157
REMARK   69  A    between atoms: _157  and  _158
REMARK   70  A    between atoms: _160  and  _162
REMARK   71  A    between atoms: _162  and  _163
REMARK   72  A    between atoms: _162  and  _165
REMARK   73  A    between atoms: _165  and  _166
REMARK   74  A    between atoms: _172  and  _174
REMARK   75  A    between atoms: _174  and  _175
REMARK   76  A    between atoms: _174  and  _177
REMARK   77  A    between atoms: _177  and  _178
REMARK   78  A    between atoms: _181  and  _183
REMARK   79  A    between atoms: _183  and  _184
REMARK   80  A    between atoms: _183  and  _186
REMARK   81  A    between atoms: _186  and  _187
REMARK   82  A    between atoms: _190  and  _192
REMARK   83  A    between atoms: _192  and  _193
REMARK   84  A    between atoms: _192  and  _195
REMARK   85  A    between atoms: _195  and  _196
REMARK   86  A    between atoms: _200  and  _201
REMARK   87  A    between atoms: _206  and  _208
REMARK   88  A    between atoms: _208  and  _209
REMARK   89  A    between atoms: _208  and  _211
REMARK   90  A    between atoms: _214  and  _216
REMARK   91  A    between atoms: _216  and  _217
REMARK   92  A    between atoms: _216  and  _219
REMARK   93  A    between atoms: _219  and  _220
REMARK   94  A    between atoms: _225  and  _227
REMARK   95  A    between atoms: _227  and  _228
REMARK   96  A    between atoms: _227  and  _230
REMARK   97  A    between atoms: _230  and  _231
REMARK   98  A    between atoms: _234  and  _236
REMARK   99  A    between atoms: _236  and  _237
REMARK  100  A    between atoms: _236  and  _239
REMARK  101  A    between atoms: _239  and  _240
REMARK  102  A    between atoms: _243  and  _245
REMARK  103  A    between atoms: _245  and  _246
REMARK  104  A    between atoms: _248  and  _250
REMARK  105  A    between atoms: _250  and  _251
REMARK  106  A    between atoms: _250  and  _253
REMARK  107  A    between atoms: _253  and  _254
REMARK  108  A    between atoms: _254  and  _255
REMARK  109  A    between atoms: _255  and  _256
REMARK  110  A    between atoms: _265  and  _267
REMARK  111  A    between atoms: _267  and  _268
REMARK  112  A    between atoms: _267  and  _270
REMARK  113  A    between atoms: _270  and  _271
REMARK  114  A    between atoms: _271  and  _272
REMARK  115  A    between atoms: _272  and  _273
REMARK  116  A    between atoms: _282  and  _284
REMARK  117  A    between atoms: _284  and  _285
REMARK  118  A    between atoms: _284  and  _287
REMARK  119  A    between atoms: _287  and  _288
REMARK  120  A    between atoms: _291  and  _293
REMARK  121  A    between atoms: _293  and  _294
REMARK  122  A    between atoms: _293  and  _296
REMARK  123  A    between atoms: _296  and  _297
REMARK  124  A    between atoms: _300  and  _302
REMARK  125  A    between atoms: _302  and  _303
REMARK  126  A    between atoms: _302  and  _305
REMARK  127  A    between atoms: _305  and  _306
REMARK  128  A    between atoms: _309  and  _311
REMARK  129  A    between atoms: _311  and  _312
REMARK  130  A    between atoms: _311  and  _314
REMARK  131  A    between atoms: _314  and  _315
REMARK  132  A    between atoms: _318  and  _320
REMARK  133  A    between atoms: _320  and  _321
REMARK  134  A    between atoms: _323  and  _325
REMARK  135  A    between atoms: _325  and  _326
REMARK  136  A    between atoms: _329  and  _331
REMARK  137  A    between atoms: _331  and  _332
REMARK  138  A    between atoms: _331  and  _334
REMARK  139  A    between atoms: _334  and  _335
REMARK  140  A    between atoms: _338  and  _340
REMARK  141  A    between atoms: _340  and  _341
REMARK  142  A    between atoms: _340  and  _343
REMARK  143  A    between atoms: _343  and  _344
REMARK  144  A    between atoms: _347  and  _349
REMARK  145  A    between atoms: _349  and  _350
REMARK  146  A    between atoms: _349  and  _352
REMARK  147  A    between atoms: _355  and  _357
REMARK  148  A    between atoms: _357  and  _358
REMARK  149  A    between atoms: _357  and  _360
REMARK  150  A    between atoms: _360  and  _361
REMARK  151  A    between atoms: _364  and  _366
REMARK  152  A    between atoms: _366  and  _367
REMARK  153  A    between atoms: _369  and  _371
REMARK  154  A    between atoms: _371  and  _372
REMARK  155  A    between atoms: _374  and  _376
REMARK  156  A    between atoms: _376  and  _377
REMARK  157  A    between atoms: _376  and  _379
REMARK  158  A    between atoms: _379  and  _380
REMARK  159  A    between atoms: _383  and  _385
REMARK  160  A    between atoms: _385  and  _386
REMARK  161  A    between atoms: _388  and  _390
REMARK  162  A    between atoms: _390  and  _391
REMARK  163  A    between atoms: _393  and  _395
REMARK  164  A    between atoms: _395  and  _396
REMARK  165  A    between atoms: _395  and  _398
REMARK  166  A    between atoms: _398  and  _399
REMARK  167  A    between atoms: _403  and  _404
REMARK  168  A    between atoms: _409  and  _411
REMARK  169  A    between atoms: _411  and  _412
REMARK  170  A    between atoms: _411  and  _414
REMARK  171  A    between atoms: _417  and  _419
REMARK  172  A    between atoms: _419  and  _420
REMARK  173  A    between atoms: _419  and  _422
REMARK  174  A    between atoms: _422  and  _423
REMARK  175  A    between atoms: _428  and  _430
REMARK  176  A    between atoms: _430  and  _431
REMARK  177  A    between atoms: _430  and  _433
REMARK  178  A    between atoms: _433  and  _434
REMARK  179  A    between atoms: _437  and  _439
REMARK  180  A    between atoms: _439  and  _440
REMARK  181  A    between atoms: _439  and  _442
REMARK  182  A    between atoms: _442  and  _443
REMARK                            x       y       z     vdW  Elec       q    Type
REMARK                         _______ _______ _______ _____ _____    ______ ____
ROOT
ATOM      1  O   HOH     1      19.506  16.120   5.538  0.00  0.00    +0.000 OA
ENDROOT
TORSDOF 0
