REMARK  Name = ../refined-set-2016/4owv/4owv_pocket.pdb
REMARK  85 active torsions:
REMARK  status: ('A' for Active; 'I' for Inactive)
REMARK    1  A    between atoms: _1  and  _3
REMARK    2  A    between atoms: _3  and  _4
REMARK    3  A    between atoms: _3  and  _6
REMARK    4  A    between atoms: _6  and  _7
REMARK    5  A    between atoms: _7  and  _8
REMARK    6  A    between atoms: _10  and  _12
REMARK    7  A    between atoms: _12  and  _13
REMARK    8  A    between atoms: _12  and  _15
REMARK    9  A    between atoms: _15  and  _16
REMARK   10  A    between atoms: _16  and  _17
REMARK   11  A    between atoms: _19  and  _21
REMARK   12  A    between atoms: _21  and  _22
REMARK   13  A    between atoms: _21  and  _24
REMARK   14  A    between atoms: _24  and  _25
REMARK   15  A    between atoms: _30  and  _32
REMARK   16  A    between atoms: _32  and  _33
REMARK   17  A    between atoms: _35  and  _37
REMARK   18  A    between atoms: _37  and  _38
REMARK   19  A    between atoms: _37  and  _40
REMARK   20  A    between atoms: _40  and  _41
REMARK   21  A    between atoms: _46  and  _48
REMARK   22  A    between atoms: _48  and  _49
REMARK   23  A    between atoms: _48  and  _51
REMARK   24  A    between atoms: _51  and  _52
REMARK   25  A    between atoms: _52  and  _53
REMARK   26  A    between atoms: _53  and  _54
REMARK   27  A    between atoms: _63  and  _65
REMARK   28  A    between atoms: _65  and  _66
REMARK   29  A    between atoms: _65  and  _68
REMARK   30  A    between atoms: _68  and  _69
REMARK   31  A    between atoms: _75  and  _77
REMARK   32  A    between atoms: _77  and  _78
REMARK   33  A    between atoms: _82  and  _83
REMARK   34  A    between atoms: _88  and  _90
REMARK   35  A    between atoms: _90  and  _91
REMARK   36  A    between atoms: _90  and  _93
REMARK   37  A    between atoms: _93  and  _94
REMARK   38  A    between atoms: _94  and  _95
REMARK   39  A    between atoms: _95  and  _96
REMARK   40  A    between atoms: _105  and  _107
REMARK   41  A    between atoms: _107  and  _108
REMARK   42  A    between atoms: _107  and  _110
REMARK   43  A    between atoms: _110  and  _111
REMARK   44  A    between atoms: _117  and  _119
REMARK   45  A    between atoms: _119  and  _120
REMARK   46  A    between atoms: _119  and  _122
REMARK   47  A    between atoms: _122  and  _123
REMARK   48  A    between atoms: _129  and  _130
REMARK   49  A    between atoms: _135  and  _137
REMARK   50  A    between atoms: _137  and  _138
REMARK   51  A    between atoms: _137  and  _140
REMARK   52  A    between atoms: _140  and  _141
REMARK   53  A    between atoms: _143  and  _145
REMARK   54  A    between atoms: _145  and  _146
REMARK   55  A    between atoms: _145  and  _148
REMARK   56  A    between atoms: _148  and  _149
REMARK   57  A    between atoms: _154  and  _155
REMARK   58  A    between atoms: _157  and  _159
REMARK   59  A    between atoms: _159  and  _160
REMARK   60  A    between atoms: _159  and  _162
REMARK   61  A    between atoms: _162  and  _163
REMARK   62  A    between atoms: _163  and  _164
REMARK   63  A    between atoms: _164  and  _165
REMARK   64  A    between atoms: _174  and  _176
REMARK   65  A    between atoms: _176  and  _177
REMARK   66  A    between atoms: _176  and  _179
REMARK   67  A    between atoms: _179  and  _180
REMARK   68  A    between atoms: _185  and  _187
REMARK   69  A    between atoms: _187  and  _188
REMARK   70  A    between atoms: _191  and  _193
REMARK   71  A    between atoms: _193  and  _194
REMARK   72  A    between atoms: _197  and  _199
REMARK   73  A    between atoms: _199  and  _200
REMARK   74  A    between atoms: _203  and  _205
REMARK   75  A    between atoms: _205  and  _206
REMARK   76  A    between atoms: _205  and  _208
REMARK   77  A    between atoms: _208  and  _209
REMARK   78  A    between atoms: _209  and  _210
REMARK   79  A    between atoms: _210  and  _211
REMARK   80  A    between atoms: _220  and  _222
REMARK   81  A    between atoms: _222  and  _223
REMARK   82  A    between atoms: _222  and  _225
REMARK   83  A    between atoms: _225  and  _226
REMARK   84  A    between atoms: _226  and  _227
REMARK   85  A    between atoms: _227  and  _228
REMARK                            x       y       z     vdW  Elec       q    Type
REMARK                         _______ _______ _______ _____ _____    ______ ____
ROOT
ATOM      1  CA  MET A   1      11.268  32.732 -14.689  0.00  0.00    +0.134 C 
ENDROOT
BRANCH   1   2
ATOM      2  N   MET A   1      11.701  31.939 -15.824  0.00  0.00    -0.239 NA
ATOM      3  H   MET A   1      12.200  31.043 -15.650  0.00  0.00    +0.142 HD
ENDBRANCH   1   2
BRANCH   1   4
ATOM      4  C   MET A   1      12.155  33.986 -14.477  0.00  0.00    +0.224 C 
ATOM      5  O   MET A   1      11.711  34.978 -13.904  0.00  0.00    -0.287 OA
ENDBRANCH   1   4
BRANCH   1   6
ATOM      6  CB  MET A   1      11.235  31.848 -13.430  0.00  0.00    +0.037 C 
BRANCH   6   7
ATOM      7  CG  MET A   1      10.188  30.743 -13.472  0.00  0.00    +0.059 C 
BRANCH   7   8
ATOM      8  SD  MET A   1       8.469  31.260 -13.670  0.00  0.00    -0.139 S 
ATOM      9  CE  MET A   1       8.440  32.222 -12.172  0.00  0.00    +0.069 C 
ENDBRANCH   7   8
ENDBRANCH   6   7
ENDBRANCH   1   6
TORSDOF 5
REMARK  Name = ../refined-set-2016/4owv/4owv_pocket.pdb
REMARK  85 active torsions:
REMARK  status: ('A' for Active; 'I' for Inactive)
REMARK    1  A    between atoms: _1  and  _3
REMARK    2  A    between atoms: _3  and  _4
REMARK    3  A    between atoms: _3  and  _6
REMARK    4  A    between atoms: _6  and  _7
REMARK    5  A    between atoms: _7  and  _8
REMARK    6  A    between atoms: _10  and  _12
REMARK    7  A    between atoms: _12  and  _13
REMARK    8  A    between atoms: _12  and  _15
REMARK    9  A    between atoms: _15  and  _16
REMARK   10  A    between atoms: _16  and  _17
REMARK   11  A    between atoms: _19  and  _21
REMARK   12  A    between atoms: _21  and  _22
REMARK   13  A    between atoms: _21  and  _24
REMARK   14  A    between atoms: _24  and  _25
REMARK   15  A    between atoms: _30  and  _32
REMARK   16  A    between atoms: _32  and  _33
REMARK   17  A    between atoms: _35  and  _37
REMARK   18  A    between atoms: _37  and  _38
REMARK   19  A    between atoms: _37  and  _40
REMARK   20  A    between atoms: _40  and  _41
REMARK   21  A    between atoms: _46  and  _48
REMARK   22  A    between atoms: _48  and  _49
REMARK   23  A    between atoms: _48  and  _51
REMARK   24  A    between atoms: _51  and  _52
REMARK   25  A    between atoms: _52  and  _53
REMARK   26  A    between atoms: _53  and  _54
REMARK   27  A    between atoms: _63  and  _65
REMARK   28  A    between atoms: _65  and  _66
REMARK   29  A    between atoms: _65  and  _68
REMARK   30  A    between atoms: _68  and  _69
REMARK   31  A    between atoms: _75  and  _77
REMARK   32  A    between atoms: _77  and  _78
REMARK   33  A    between atoms: _82  and  _83
REMARK   34  A    between atoms: _88  and  _90
REMARK   35  A    between atoms: _90  and  _91
REMARK   36  A    between atoms: _90  and  _93
REMARK   37  A    between atoms: _93  and  _94
REMARK   38  A    between atoms: _94  and  _95
REMARK   39  A    between atoms: _95  and  _96
REMARK   40  A    between atoms: _105  and  _107
REMARK   41  A    between atoms: _107  and  _108
REMARK   42  A    between atoms: _107  and  _110
REMARK   43  A    between atoms: _110  and  _111
REMARK   44  A    between atoms: _117  and  _119
REMARK   45  A    between atoms: _119  and  _120
REMARK   46  A    between atoms: _119  and  _122
REMARK   47  A    between atoms: _122  and  _123
REMARK   48  A    between atoms: _129  and  _130
REMARK   49  A    between atoms: _135  and  _137
REMARK   50  A    between atoms: _137  and  _138
REMARK   51  A    between atoms: _137  and  _140
REMARK   52  A    between atoms: _140  and  _141
REMARK   53  A    between atoms: _143  and  _145
REMARK   54  A    between atoms: _145  and  _146
REMARK   55  A    between atoms: _145  and  _148
REMARK   56  A    between atoms: _148  and  _149
REMARK   57  A    between atoms: _154  and  _155
REMARK   58  A    between atoms: _157  and  _159
REMARK   59  A    between atoms: _159  and  _160
REMARK   60  A    between atoms: _159  and  _162
REMARK   61  A    between atoms: _162  and  _163
REMARK   62  A    between atoms: _163  and  _164
REMARK   63  A    between atoms: _164  and  _165
REMARK   64  A    between atoms: _174  and  _176
REMARK   65  A    between atoms: _176  and  _177
REMARK   66  A    between atoms: _176  and  _179
REMARK   67  A    between atoms: _179  and  _180
REMARK   68  A    between atoms: _185  and  _187
REMARK   69  A    between atoms: _187  and  _188
REMARK   70  A    between atoms: _191  and  _193
REMARK   71  A    between atoms: _193  and  _194
REMARK   72  A    between atoms: _197  and  _199
REMARK   73  A    between atoms: _199  and  _200
REMARK   74  A    between atoms: _203  and  _205
REMARK   75  A    between atoms: _205  and  _206
REMARK   76  A    between atoms: _205  and  _208
REMARK   77  A    between atoms: _208  and  _209
REMARK   78  A    between atoms: _209  and  _210
REMARK   79  A    between atoms: _210  and  _211
REMARK   80  A    between atoms: _220  and  _222
REMARK   81  A    between atoms: _222  and  _223
REMARK   82  A    between atoms: _222  and  _225
REMARK   83  A    between atoms: _225  and  _226
REMARK   84  A    between atoms: _226  and  _227
REMARK   85  A    between atoms: _227  and  _228
REMARK                            x       y       z     vdW  Elec       q    Type
REMARK                         _______ _______ _______ _____ _____    ______ ____
ROOT
ATOM      1  CA  MET A   1       8.107  28.357 -10.298  0.00  0.00    +0.134 C 
ENDROOT
BRANCH   1   2
ATOM      2  N   MET A   1       9.093  27.259 -10.253  0.00  0.00    -0.239 NA
ATOM      3  H   MET A   1       8.868  26.340 -10.686  0.00  0.00    +0.142 HD
ENDBRANCH   1   2
BRANCH   1   4
ATOM      4  C   MET A   1       7.732  28.824  -8.889  0.00  0.00    +0.224 C 
ATOM      5  O   MET A   1       7.777  30.037  -8.588  0.00  0.00    -0.287 OA
ENDBRANCH   1   4
BRANCH   1   6
ATOM      6  CB  MET A   1       6.847  27.940 -11.059  0.00  0.00    +0.037 C 
BRANCH   6   7
ATOM      7  CG  MET A   1       5.799  29.024 -11.136  0.00  0.00    +0.059 C 
BRANCH   7   8
ATOM      8  SD  MET A   1       4.656  28.631 -12.468  0.00  0.00    -0.139 S 
ATOM      9  CE  MET A   1       3.400  29.882 -12.161  0.00  0.00    +0.069 C 
ENDBRANCH   7   8
ENDBRANCH   6   7
ENDBRANCH   1   6
TORSDOF 5
REMARK  Name = ../refined-set-2016/4owv/4owv_pocket.pdb
REMARK  85 active torsions:
REMARK  status: ('A' for Active; 'I' for Inactive)
REMARK    1  A    between atoms: _1  and  _3
REMARK    2  A    between atoms: _3  and  _4
REMARK    3  A    between atoms: _3  and  _6
REMARK    4  A    between atoms: _6  and  _7
REMARK    5  A    between atoms: _7  and  _8
REMARK    6  A    between atoms: _10  and  _12
REMARK    7  A    between atoms: _12  and  _13
REMARK    8  A    between atoms: _12  and  _15
REMARK    9  A    between atoms: _15  and  _16
REMARK   10  A    between atoms: _16  and  _17
REMARK   11  A    between atoms: _19  and  _21
REMARK   12  A    between atoms: _21  and  _22
REMARK   13  A    between atoms: _21  and  _24
REMARK   14  A    between atoms: _24  and  _25
REMARK   15  A    between atoms: _30  and  _32
REMARK   16  A    between atoms: _32  and  _33
REMARK   17  A    between atoms: _35  and  _37
REMARK   18  A    between atoms: _37  and  _38
REMARK   19  A    between atoms: _37  and  _40
REMARK   20  A    between atoms: _40  and  _41
REMARK   21  A    between atoms: _46  and  _48
REMARK   22  A    between atoms: _48  and  _49
REMARK   23  A    between atoms: _48  and  _51
REMARK   24  A    between atoms: _51  and  _52
REMARK   25  A    between atoms: _52  and  _53
REMARK   26  A    between atoms: _53  and  _54
REMARK   27  A    between atoms: _63  and  _65
REMARK   28  A    between atoms: _65  and  _66
REMARK   29  A    between atoms: _65  and  _68
REMARK   30  A    between atoms: _68  and  _69
REMARK   31  A    between atoms: _75  and  _77
REMARK   32  A    between atoms: _77  and  _78
REMARK   33  A    between atoms: _82  and  _83
REMARK   34  A    between atoms: _88  and  _90
REMARK   35  A    between atoms: _90  and  _91
REMARK   36  A    between atoms: _90  and  _93
REMARK   37  A    between atoms: _93  and  _94
REMARK   38  A    between atoms: _94  and  _95
REMARK   39  A    between atoms: _95  and  _96
REMARK   40  A    between atoms: _105  and  _107
REMARK   41  A    between atoms: _107  and  _108
REMARK   42  A    between atoms: _107  and  _110
REMARK   43  A    between atoms: _110  and  _111
REMARK   44  A    between atoms: _117  and  _119
REMARK   45  A    between atoms: _119  and  _120
REMARK   46  A    between atoms: _119  and  _122
REMARK   47  A    between atoms: _122  and  _123
REMARK   48  A    between atoms: _129  and  _130
REMARK   49  A    between atoms: _135  and  _137
REMARK   50  A    between atoms: _137  and  _138
REMARK   51  A    between atoms: _137  and  _140
REMARK   52  A    between atoms: _140  and  _141
REMARK   53  A    between atoms: _143  and  _145
REMARK   54  A    between atoms: _145  and  _146
REMARK   55  A    between atoms: _145  and  _148
REMARK   56  A    between atoms: _148  and  _149
REMARK   57  A    between atoms: _154  and  _155
REMARK   58  A    between atoms: _157  and  _159
REMARK   59  A    between atoms: _159  and  _160
REMARK   60  A    between atoms: _159  and  _162
REMARK   61  A    between atoms: _162  and  _163
REMARK   62  A    between atoms: _163  and  _164
REMARK   63  A    between atoms: _164  and  _165
REMARK   64  A    between atoms: _174  and  _176
REMARK   65  A    between atoms: _176  and  _177
REMARK   66  A    between atoms: _176  and  _179
REMARK   67  A    between atoms: _179  and  _180
REMARK   68  A    between atoms: _185  and  _187
REMARK   69  A    between atoms: _187  and  _188
REMARK   70  A    between atoms: _191  and  _193
REMARK   71  A    between atoms: _193  and  _194
REMARK   72  A    between atoms: _197  and  _199
REMARK   73  A    between atoms: _199  and  _200
REMARK   74  A    between atoms: _203  and  _205
REMARK   75  A    between atoms: _205  and  _206
REMARK   76  A    between atoms: _205  and  _208
REMARK   77  A    between atoms: _208  and  _209
REMARK   78  A    between atoms: _209  and  _210
REMARK   79  A    between atoms: _210  and  _211
REMARK   80  A    between atoms: _220  and  _222
REMARK   81  A    between atoms: _222  and  _223
REMARK   82  A    between atoms: _222  and  _225
REMARK   83  A    between atoms: _225  and  _226
REMARK   84  A    between atoms: _226  and  _227
REMARK   85  A    between atoms: _227  and  _228
REMARK                            x       y       z     vdW  Elec       q    Type
REMARK                         _______ _______ _______ _____ _____    ______ ____
ROOT
ATOM      1  CA  ASN A   3      -6.573  34.956 -12.519  0.00  0.00    +0.158 C 
ENDROOT
BRANCH   1   2
ATOM      2  C   ASN A   3      -7.936  35.311 -13.121  0.00  0.00    +0.241 C 
ATOM      3  O   ASN A   3      -8.820  34.464 -13.201  0.00  0.00    -0.273 OA
ATOM      4  N   ARG A   4      -8.087  36.575 -13.506  0.00  0.00    -0.298 N 
ATOM      5  H   ARG A   4      -7.375  37.274 -13.213  0.00  0.00    +0.150 HD
BRANCH   4   6
ATOM      6  CA  ARG A   4      -9.226  37.026 -14.334  0.00  0.00    +0.137 C 
BRANCH   6   7
ATOM      7  C   ARG A   4      -9.128  36.305 -15.689  0.00  0.00    +0.227 C 
ATOM      8  O   ARG A   4      -8.020  36.009 -16.155  0.00  0.00    -0.286 OA
ENDBRANCH   6   7
BRANCH   6   9
ATOM      9  CB  ARG A   4      -9.228  38.562 -14.519  0.00  0.00    +0.031 C 
BRANCH   9  10
ATOM     10  CG  ARG A   4      -9.263  39.385 -13.225  0.00  0.00    +0.045 C 
BRANCH  10  11
ATOM     11  CD  ARG A   4      -9.643  40.857 -13.440  0.00  0.00    +0.174 C 
BRANCH  11  12
ATOM     12  NE  ARG A   4      -9.777  41.614 -12.185  0.00  0.00    -0.265 N 
ATOM     13  CZ  ARG A   4      -8.785  42.250 -11.558  0.00  0.00    +0.342 C 
ATOM     14  NH2 ARG A   4      -9.029  42.899 -10.418  0.00  0.00    -0.292 N 
ATOM     15 HH21 ARG A   4      -8.258  43.396  -9.927  0.00  0.00    +0.255 HD
ATOM     16 HH22 ARG A   4      -9.990  42.908 -10.020  0.00  0.00    +0.255 HD
ATOM     17  NH1 ARG A   4      -7.546  42.271 -12.059  0.00  0.00    -0.292 N 
ATOM     18 HH11 ARG A   4      -6.789  42.773 -11.553  0.00  0.00    +0.255 HD
ATOM     19 HH12 ARG A   4      -7.339  41.785 -12.955  0.00  0.00    +0.255 HD
ATOM     20  HE  ARG A   4     -10.721  41.657 -11.751  0.00  0.00    +0.259 HD
ENDBRANCH  11  12
ENDBRANCH  10  11
ENDBRANCH   9  10
ENDBRANCH   6   9
ENDBRANCH   4   6
ENDBRANCH   1   2
BRANCH   1  23
ATOM     21  C   GLY A   2      -6.033  33.518 -10.629  0.00  0.00    +0.243 C 
ATOM     22  O   GLY A   2      -5.434  34.386 -10.023  0.00  0.00    -0.273 OA
ATOM     23  N   ASN A   3      -6.655  33.705 -11.792  0.00  0.00    -0.297 N 
ATOM     24  H   ASN A   3      -7.218  32.927 -12.192  0.00  0.00    +0.150 HD
BRANCH  21  25
ATOM     25  CA  GLY A   2      -6.112  32.128 -10.088  0.00  0.00    +0.176 C 
BRANCH  25  28
ATOM     26  C   HIS A   1      -5.911  30.836  -8.104  0.00  0.00    +0.239 C 
ATOM     27  O   HIS A   1      -6.422  29.908  -8.672  0.00  0.00    -0.274 OA
ATOM     28  N   GLY A   2      -5.772  32.012  -8.679  0.00  0.00    -0.296 N 
ATOM     29  H   GLY A   2      -5.429  32.834  -8.141  0.00  0.00    +0.150 HD
BRANCH  26  30
ATOM     30  CA  HIS A   1      -5.483  30.681  -6.671  0.00  0.00    +0.151 C 
BRANCH  30  31
ATOM     31  N   HIS A   1      -6.603  30.030  -6.005  0.00  0.00    -0.238 NA
ATOM     32  H   HIS A   1      -7.240  29.412  -6.548  0.00  0.00    +0.142 HD
ENDBRANCH  30  31
BRANCH  30  33
ATOM     33  CB  HIS A   1      -4.272  29.757  -6.499  0.00  0.00    +0.074 C 
BRANCH  33  34
ATOM     34  CG  HIS A   1      -3.108  30.059  -7.380  0.00  0.00    +0.082 A 
ATOM     35  CD2 HIS A   1      -2.431  31.209  -7.614  0.00  0.00    +0.115 A 
ATOM     36  NE2 HIS A   1      -1.421  30.912  -8.495  0.00  0.00    -0.221 NA
ATOM     37  CE1 HIS A   1      -1.465  29.621  -8.778  0.00  0.00    +0.199 A 
ATOM     38  ND1 HIS A   1      -2.473  29.083  -8.111  0.00  0.00    -0.227 NA
ENDBRANCH  33  34
ENDBRANCH  30  33
ENDBRANCH  26  30
ENDBRANCH  25  28
ENDBRANCH  21  25
ENDBRANCH   1  23
BRANCH   1  39
ATOM     39  CB  ASN A   3      -5.523  34.823 -13.630  0.00  0.00    +0.114 C 
BRANCH  39  40
ATOM     40  CG  ASN A   3      -4.991  36.164 -14.115  0.00  0.00    +0.222 C 
ATOM     41  OD1 ASN A   3      -5.570  37.221 -13.865  0.00  0.00    -0.275 OA
ATOM     42  ND2 ASN A   3      -3.874  36.120 -14.823  0.00  0.00    -0.329 N 
ATOM     43 HD21 ASN A   3      -3.414  35.207 -15.013  0.00  0.00    +0.145 HD
ATOM     44 HD22 ASN A   3      -3.456  36.999 -15.189  0.00  0.00    +0.145 HD
ENDBRANCH  39  40
ENDBRANCH   1  39
TORSDOF 16
REMARK  Name = ../refined-set-2016/4owv/4owv_pocket.pdb
REMARK  85 active torsions:
REMARK  status: ('A' for Active; 'I' for Inactive)
REMARK    1  A    between atoms: _1  and  _3
REMARK    2  A    between atoms: _3  and  _4
REMARK    3  A    between atoms: _3  and  _6
REMARK    4  A    between atoms: _6  and  _7
REMARK    5  A    between atoms: _7  and  _8
REMARK    6  A    between atoms: _10  and  _12
REMARK    7  A    between atoms: _12  and  _13
REMARK    8  A    between atoms: _12  and  _15
REMARK    9  A    between atoms: _15  and  _16
REMARK   10  A    between atoms: _16  and  _17
REMARK   11  A    between atoms: _19  and  _21
REMARK   12  A    between atoms: _21  and  _22
REMARK   13  A    between atoms: _21  and  _24
REMARK   14  A    between atoms: _24  and  _25
REMARK   15  A    between atoms: _30  and  _32
REMARK   16  A    between atoms: _32  and  _33
REMARK   17  A    between atoms: _35  and  _37
REMARK   18  A    between atoms: _37  and  _38
REMARK   19  A    between atoms: _37  and  _40
REMARK   20  A    between atoms: _40  and  _41
REMARK   21  A    between atoms: _46  and  _48
REMARK   22  A    between atoms: _48  and  _49
REMARK   23  A    between atoms: _48  and  _51
REMARK   24  A    between atoms: _51  and  _52
REMARK   25  A    between atoms: _52  and  _53
REMARK   26  A    between atoms: _53  and  _54
REMARK   27  A    between atoms: _63  and  _65
REMARK   28  A    between atoms: _65  and  _66
REMARK   29  A    between atoms: _65  and  _68
REMARK   30  A    between atoms: _68  and  _69
REMARK   31  A    between atoms: _75  and  _77
REMARK   32  A    between atoms: _77  and  _78
REMARK   33  A    between atoms: _82  and  _83
REMARK   34  A    between atoms: _88  and  _90
REMARK   35  A    between atoms: _90  and  _91
REMARK   36  A    between atoms: _90  and  _93
REMARK   37  A    between atoms: _93  and  _94
REMARK   38  A    between atoms: _94  and  _95
REMARK   39  A    between atoms: _95  and  _96
REMARK   40  A    between atoms: _105  and  _107
REMARK   41  A    between atoms: _107  and  _108
REMARK   42  A    between atoms: _107  and  _110
REMARK   43  A    between atoms: _110  and  _111
REMARK   44  A    between atoms: _117  and  _119
REMARK   45  A    between atoms: _119  and  _120
REMARK   46  A    between atoms: _119  and  _122
REMARK   47  A    between atoms: _122  and  _123
REMARK   48  A    between atoms: _129  and  _130
REMARK   49  A    between atoms: _135  and  _137
REMARK   50  A    between atoms: _137  and  _138
REMARK   51  A    between atoms: _137  and  _140
REMARK   52  A    between atoms: _140  and  _141
REMARK   53  A    between atoms: _143  and  _145
REMARK   54  A    between atoms: _145  and  _146
REMARK   55  A    between atoms: _145  and  _148
REMARK   56  A    between atoms: _148  and  _149
REMARK   57  A    between atoms: _154  and  _155
REMARK   58  A    between atoms: _157  and  _159
REMARK   59  A    between atoms: _159  and  _160
REMARK   60  A    between atoms: _159  and  _162
REMARK   61  A    between atoms: _162  and  _163
REMARK   62  A    between atoms: _163  and  _164
REMARK   63  A    between atoms: _164  and  _165
REMARK   64  A    between atoms: _174  and  _176
REMARK   65  A    between atoms: _176  and  _177
REMARK   66  A    between atoms: _176  and  _179
REMARK   67  A    between atoms: _179  and  _180
REMARK   68  A    between atoms: _185  and  _187
REMARK   69  A    between atoms: _187  and  _188
REMARK   70  A    between atoms: _191  and  _193
REMARK   71  A    between atoms: _193  and  _194
REMARK   72  A    between atoms: _197  and  _199
REMARK   73  A    between atoms: _199  and  _200
REMARK   74  A    between atoms: _203  and  _205
REMARK   75  A    between atoms: _205  and  _206
REMARK   76  A    between atoms: _205  and  _208
REMARK   77  A    between atoms: _208  and  _209
REMARK   78  A    between atoms: _209  and  _210
REMARK   79  A    between atoms: _210  and  _211
REMARK   80  A    between atoms: _220  and  _222
REMARK   81  A    between atoms: _222  and  _223
REMARK   82  A    between atoms: _222  and  _225
REMARK   83  A    between atoms: _225  and  _226
REMARK   84  A    between atoms: _226  and  _227
REMARK   85  A    between atoms: _227  and  _228
REMARK                            x       y       z     vdW  Elec       q    Type
REMARK                         _______ _______ _______ _____ _____    ______ ____
ROOT
ATOM      1  C   HIS A   6       4.243  36.025 -10.532  0.00  0.00    +0.244 C 
ATOM      2  N   PRO A   7       4.751  37.168 -10.063  0.00  0.00    -0.272 N 
ATOM      3  CD  PRO A   7       5.212  37.497  -8.716  0.00  0.00    +0.094 C 
ATOM      4  CG  PRO A   7       6.202  38.617  -8.956  0.00  0.00    +0.024 C 
ATOM      5  CB  PRO A   7       5.687  39.327 -10.173  0.00  0.00    +0.031 C 
ATOM      6  CA  PRO A   7       5.097  38.223 -11.042  0.00  0.00    +0.152 C 
ATOM      7  O   HIS A   6       4.116  35.809 -11.726  0.00  0.00    -0.273 OA
ENDROOT
BRANCH   6   8
ATOM      8  C   PRO A   7       6.115  37.780 -12.098  0.00  0.00    +0.241 C 
ATOM      9  N   SER A   8       7.083  36.953 -11.719  0.00  0.00    -0.295 N 
ATOM     10  H   SER A   8       7.125  36.639 -10.729  0.00  0.00    +0.150 HD
ATOM     11  O   PRO A   7       5.998  38.189 -13.249  0.00  0.00    -0.273 OA
BRANCH   9  12
ATOM     12  CA  SER A   8       8.100  36.471 -12.675  0.00  0.00    +0.178 C 
BRANCH  12  13
ATOM     13  C   SER A   8       7.564  35.524 -13.760  0.00  0.00    +0.243 C 
ATOM     14  N   TYR A   9       6.321  35.070 -13.632  0.00  0.00    -0.297 N 
ATOM     15  H   TYR A   9       5.772  35.323 -12.786  0.00  0.00    +0.150 HD
ATOM     16  O   SER A   8       8.272  35.213 -14.703  0.00  0.00    -0.273 OA
BRANCH  14  17
ATOM     17  CA  TYR A   9       5.706  34.219 -14.659  0.00  0.00    +0.153 C 
BRANCH  17  18
ATOM     18  C   TYR A   9       5.221  35.006 -15.869  0.00  0.00    +0.241 C 
ATOM     19  N   ARG A  10       5.322  36.334 -15.832  0.00  0.00    -0.297 N 
ATOM     20  H   ARG A  10       5.828  36.790 -15.046  0.00  0.00    +0.150 HD
ATOM     21  O   TYR A   9       4.753  34.426 -16.834  0.00  0.00    -0.273 OA
BRANCH  19  22
ATOM     22  CA  ARG A  10       4.731  37.153 -16.881  0.00  0.00    +0.149 C 
BRANCH  22  23
ATOM     23  C   ARG A  10       5.264  36.846 -18.314  0.00  0.00    +0.241 C 
ATOM     24  N   HIS A  11       6.510  36.426 -18.422  0.00  0.00    -0.297 N 
ATOM     25  H   HIS A  11       7.084  36.315 -17.562  0.00  0.00    +0.150 HD
ATOM     26  O   ARG A  10       4.527  36.947 -19.284  0.00  0.00    -0.273 OA
BRANCH  24  27
ATOM     27  CA  HIS A  11       7.112  36.108 -19.737  0.00  0.00    +0.155 C 
BRANCH  27  28
ATOM     28  C   HIS A  11       6.436  34.868 -20.312  0.00  0.00    +0.241 C 
ATOM     29  N   ALA A  12       6.266  33.840 -19.495  0.00  0.00    -0.297 N 
ATOM     30  H   ALA A  12       6.661  33.874 -18.533  0.00  0.00    +0.150 HD
ATOM     31  O   HIS A  11       6.027  34.857 -21.454  0.00  0.00    -0.273 OA
BRANCH  29  32
ATOM     32  CA  ALA A  12       5.530  32.663 -19.934  0.00  0.00    +0.149 C 
ATOM     33  CB  ALA A  12       5.632  31.551 -18.911  0.00  0.00    +0.031 C 
BRANCH  32  34
ATOM     34  C   ALA A  12       4.058  32.969 -20.239  0.00  0.00    +0.241 C 
ATOM     35  N   ALA A  13       3.404  33.765 -19.386  0.00  0.00    -0.297 N 
ATOM     36  H   ALA A  13       3.905  34.167 -18.568  0.00  0.00    +0.150 HD
ATOM     37  O   ALA A  12       3.524  32.490 -21.246  0.00  0.00    -0.273 OA
BRANCH  35  38
ATOM     38  CA  ALA A  13       1.984  34.077 -19.594  0.00  0.00    +0.149 C 
ATOM     39  CB  ALA A  13       1.423  34.912 -18.444  0.00  0.00    +0.031 C 
BRANCH  38  40
ATOM     40  C   ALA A  13       1.745  34.760 -20.956  0.00  0.00    +0.241 C 
ATOM     41  N   ALA A  14       2.655  35.627 -21.389  0.00  0.00    -0.298 N 
ATOM     42  H   ALA A  14       3.491  35.821 -20.801  0.00  0.00    +0.150 HD
ATOM     43  O   ALA A  13       0.782  34.449 -21.622  0.00  0.00    -0.273 OA
BRANCH  41  44
ATOM     44  CA  ALA A  14       2.509  36.319 -22.679  0.00  0.00    +0.137 C 
ATOM     45  CB  ALA A  14       3.562  37.398 -22.836  0.00  0.00    +0.030 C 
BRANCH  44  46
ATOM     46  C   ALA A  14       2.620  35.327 -23.825  0.00  0.00    +0.227 C 
ATOM     47  O   ALA A  14       1.833  35.366 -24.773  0.00  0.00    -0.286 OA
ENDBRANCH  44  46
ENDBRANCH  41  44
ENDBRANCH  38  40
ENDBRANCH  35  38
ENDBRANCH  32  34
ENDBRANCH  29  32
ENDBRANCH  27  28
BRANCH  27  48
ATOM     48  CB  HIS A  11       8.629  35.912 -19.626  0.00  0.00    +0.076 C 
BRANCH  48  49
ATOM     49  CG  HIS A  11       9.310  36.936 -18.771  0.00  0.00    +0.082 A 
ATOM     50  CD2 HIS A  11       9.845  36.845 -17.530  0.00  0.00    +0.115 A 
ATOM     51  NE2 HIS A  11      10.333  38.085 -17.207  0.00  0.00    -0.221 NA
ATOM     52  CE1 HIS A  11      10.093  38.914 -18.206  0.00  0.00    +0.199 A 
ATOM     53  ND1 HIS A  11       9.482  38.244 -19.167  0.00  0.00    -0.227 NA
ENDBRANCH  48  49
ENDBRANCH  27  48
ENDBRANCH  24  27
ENDBRANCH  22  23
BRANCH  22  54
ATOM     54  CB  ARG A  10       4.918  38.634 -16.543  0.00  0.00    +0.033 C 
BRANCH  54  55
ATOM     55  CG  ARG A  10       6.355  39.100 -16.469  0.00  0.00    +0.045 C 
BRANCH  55  56
ATOM     56  CD  ARG A  10       6.400  40.580 -16.106  0.00  0.00    +0.174 C 
BRANCH  56  57
ATOM     57  NE  ARG A  10       7.763  41.064 -16.104  0.00  0.00    -0.265 N 
ATOM     58  CZ  ARG A  10       8.644  40.860 -15.132  0.00  0.00    +0.342 C 
ATOM     59  NH2 ARG A  10       8.328  40.183 -14.032  0.00  0.00    -0.292 N 
ATOM     60 HH21 ARG A  10       9.040  40.039 -13.287  0.00  0.00    +0.255 HD
ATOM     61 HH22 ARG A  10       7.369  39.797 -13.916  0.00  0.00    +0.255 HD
ATOM     62  NH1 ARG A  10       9.866  41.335 -15.264  0.00  0.00    -0.292 N 
ATOM     63 HH11 ARG A  10      10.567  41.183 -14.511  0.00  0.00    +0.255 HD
ATOM     64 HH12 ARG A  10      10.129  41.862 -16.121  0.00  0.00    +0.255 HD
ATOM     65  HE  ARG A  10       8.077  41.615 -16.928  0.00  0.00    +0.259 HD
ENDBRANCH  56  57
ENDBRANCH  55  56
ENDBRANCH  54  55
ENDBRANCH  22  54
ENDBRANCH  19  22
ENDBRANCH  17  18
BRANCH  17  66
ATOM     66  CB  TYR A   9       4.506  33.496 -14.048  0.00  0.00    +0.055 C 
BRANCH  66  67
ATOM     67  CG  TYR A   9       3.907  32.388 -14.886  0.00  0.00    -0.020 A 
ATOM     68  CD2 TYR A   9       4.574  31.194 -15.040  0.00  0.00    -0.001 A 
ATOM     69  CE2 TYR A   9       4.040  30.151 -15.781  0.00  0.00    +0.036 A 
ATOM     70  CZ  TYR A   9       2.798  30.292 -16.375  0.00  0.00    +0.134 A 
ATOM     71  CE1 TYR A   9       2.088  31.476 -16.235  0.00  0.00    +0.036 A 
ATOM     72  CD1 TYR A   9       2.651  32.525 -15.489  0.00  0.00    -0.001 A 
BRANCH  70  73
ATOM     73  OH  TYR A   9       2.302  29.212 -17.087  0.00  0.00    -0.506 OA
ATOM     74  HH  TYR A   9       2.960  28.473 -17.064  0.00  0.00    +0.292 HD
ENDBRANCH  70  73
ENDBRANCH  66  67
ENDBRANCH  17  66
ENDBRANCH  14  17
ENDBRANCH  12  13
BRANCH  12  75
ATOM     75  CB  SER A   8       9.233  35.782 -11.945  0.00  0.00    +0.166 C 
BRANCH  75  76
ATOM     76  OG  SER A   8       9.827  36.699 -11.054  0.00  0.00    -0.380 OA
ATOM     77  H   SER A   8      10.178  37.472 -11.563  0.00  0.00    +0.211 HD
ENDBRANCH  75  76
ENDBRANCH  12  75
ENDBRANCH   9  12
ENDBRANCH   6   8
BRANCH   1  78
ATOM     78  CA  HIS A   6       3.811  34.977  -9.531  0.00  0.00    +0.155 C 
BRANCH  78  81
ATOM     79  C   PHE A   5       3.079  35.502  -7.248  0.00  0.00    +0.241 C 
ATOM     80  O   PHE A   5       4.107  35.097  -6.741  0.00  0.00    -0.273 OA
ATOM     81  N   HIS A   6       2.861  35.516  -8.553  0.00  0.00    -0.297 N 
ATOM     82  H   HIS A   6       1.973  35.929  -8.902  0.00  0.00    +0.150 HD
BRANCH  79  83
ATOM     83  CA  PHE A   5       1.999  36.087  -6.348  0.00  0.00    +0.153 C 
BRANCH  83  86
ATOM     84  C   ARG A   4       1.480  38.363  -7.033  0.00  0.00    +0.241 C 
ATOM     85  O   ARG A   4       2.497  38.832  -6.521  0.00  0.00    -0.273 OA
ATOM     86  N   PHE A   5       1.158  37.076  -6.977  0.00  0.00    -0.297 N 
ATOM     87  H   PHE A   5       0.261  36.768  -7.405  0.00  0.00    +0.150 HD
BRANCH  84  88
ATOM     88  CA  ARG A   4       0.467  39.284  -7.751  0.00  0.00    +0.149 C 
BRANCH  88  90
ATOM     89  C   PRO A   3       0.434  38.608 -10.031  0.00  0.00    +0.241 C 
ATOM     90  N   ARG A   4      -0.199  38.658  -8.870  0.00  0.00    -0.297 N 
ATOM     91  H   ARG A   4      -1.153  38.256  -8.766  0.00  0.00    +0.150 HD
ATOM     92  O   PRO A   3       1.593  39.014 -10.157  0.00  0.00    -0.273 OA
BRANCH  89  96
ATOM     93  C   ALA A   2      -0.804  35.864 -10.076  0.00  0.00    +0.244 C 
ATOM     94  O   ALA A   2       0.364  35.761  -9.737  0.00  0.00    -0.273 OA
ATOM     95  N   PRO A   3      -1.258  36.912 -10.791  0.00  0.00    -0.272 N 
ATOM     96  CA  PRO A   3      -0.278  37.943 -11.192  0.00  0.00    +0.152 C 
ATOM     97  CB  PRO A   3      -1.115  38.940 -12.016  0.00  0.00    +0.031 C 
ATOM     98  CG  PRO A   3      -2.242  38.132 -12.552  0.00  0.00    +0.024 C 
ATOM     99  CD  PRO A   3      -2.554  37.090 -11.488  0.00  0.00    +0.094 C 
BRANCH  93 100
ATOM    100  CA  ALA A   2      -1.820  34.817  -9.626  0.00  0.00    +0.149 C 
ATOM    101  CB  ALA A   2      -2.179  33.888 -10.774  0.00  0.00    +0.031 C 
BRANCH 100 104
ATOM    102  C   PHE A   1      -3.006  36.213  -7.992  0.00  0.00    +0.239 C 
ATOM    103  O   PHE A   1      -1.979  36.737  -7.584  0.00  0.00    -0.274 OA
ATOM    104  N   ALA A   2      -3.034  35.369  -9.018  0.00  0.00    -0.297 N 
ATOM    105  H   ALA A   2      -3.957  35.088  -9.406  0.00  0.00    +0.150 HD
BRANCH 102 106
ATOM    106  CA  PHE A   1      -4.334  36.477  -7.283  0.00  0.00    +0.149 C 
BRANCH 106 107
ATOM    107  N   PHE A   1      -4.257  35.975  -5.908  0.00  0.00    -0.238 NA
ATOM    108  H   PHE A   1      -4.133  36.649  -5.126  0.00  0.00    +0.142 HD
ENDBRANCH 106 107
BRANCH 106 109
ATOM    109  CB  PHE A   1      -4.607  37.988  -7.227  0.00  0.00    +0.053 C 
BRANCH 109 110
ATOM    110  CG  PHE A   1      -4.821  38.616  -8.561  0.00  0.00    -0.020 A 
ATOM    111  CD2 PHE A   1      -4.039  39.689  -8.977  0.00  0.00    -0.004 A 
ATOM    112  CE2 PHE A   1      -4.263  40.293 -10.203  0.00  0.00    -0.000 A 
ATOM    113  CZ  PHE A   1      -5.269  39.823 -11.023  0.00  0.00    -0.000 A 
ATOM    114  CE1 PHE A   1      -6.046  38.756 -10.615  0.00  0.00    -0.000 A 
ATOM    115  CD1 PHE A   1      -5.825  38.166  -9.387  0.00  0.00    -0.004 A 
ENDBRANCH 109 110
ENDBRANCH 106 109
ENDBRANCH 102 106
ENDBRANCH 100 104
ENDBRANCH  93 100
ENDBRANCH  89  96
ENDBRANCH  88  90
BRANCH  88 116
ATOM    116  CB  ARG A   4      -0.566  39.754  -6.754  0.00  0.00    +0.033 C 
BRANCH 116 117
ATOM    117  CG  ARG A   4       0.056  40.614  -5.686  0.00  0.00    +0.045 C 
BRANCH 117 118
ATOM    118  CD  ARG A   4      -0.818  40.648  -4.473  0.00  0.00    +0.174 C 
BRANCH 118 119
ATOM    119  NE  ARG A   4      -1.780  41.730  -4.601  0.00  0.00    -0.265 N 
ATOM    120  CZ  ARG A   4      -1.517  43.006  -4.325  0.00  0.00    +0.342 C 
ATOM    121  NH2 ARG A   4      -0.313  43.377  -3.925  0.00  0.00    -0.292 N 
ATOM    122 HH21 ARG A   4      -0.121  44.377  -3.713  0.00  0.00    +0.255 HD
ATOM    123 HH22 ARG A   4       0.442  42.669  -3.823  0.00  0.00    +0.255 HD
ATOM    124  NH1 ARG A   4      -2.475  43.917  -4.462  0.00  0.00    -0.292 N 
ATOM    125 HH11 ARG A   4      -2.277  44.915  -4.248  0.00  0.00    +0.255 HD
ATOM    126 HH12 ARG A   4      -3.422  43.631  -4.783  0.00  0.00    +0.255 HD
ATOM    127  HE  ARG A   4      -2.737  41.492  -4.930  0.00  0.00    +0.259 HD
ENDBRANCH 118 119
ENDBRANCH 117 118
ENDBRANCH 116 117
ENDBRANCH  88 116
ENDBRANCH  84  88
ENDBRANCH  83  86
BRANCH  83 128
ATOM    128  CB  PHE A   5       1.143  34.988  -5.699  0.00  0.00    +0.055 C 
BRANCH 128 129
ATOM    129  CG  PHE A   5       0.443  35.465  -4.462  0.00  0.00    -0.020 A 
ATOM    130  CD2 PHE A   5       1.012  35.291  -3.224  0.00  0.00    -0.004 A 
ATOM    131  CE2 PHE A   5       0.392  35.770  -2.075  0.00  0.00    -0.000 A 
ATOM    132  CZ  PHE A   5      -0.820  36.430  -2.180  0.00  0.00    -0.000 A 
ATOM    133  CE1 PHE A   5      -1.396  36.602  -3.425  0.00  0.00    -0.000 A 
ATOM    134  CD1 PHE A   5      -0.752  36.150  -4.553  0.00  0.00    -0.004 A 
ENDBRANCH 128 129
ENDBRANCH  83 128
ENDBRANCH  79  83
ENDBRANCH  78  81
BRANCH  78 135
ATOM    135  CB  HIS A   6       3.179  33.844 -10.305  0.00  0.00    +0.076 C 
BRANCH 135 136
ATOM    136  CG  HIS A   6       2.798  32.670  -9.459  0.00  0.00    +0.082 A 
ATOM    137  ND1 HIS A   6       3.733  31.825  -8.904  0.00  0.00    -0.227 NA
ATOM    138  CE1 HIS A   6       3.108  30.877  -8.231  0.00  0.00    +0.199 A 
ATOM    139  NE2 HIS A   6       1.801  31.076  -8.329  0.00  0.00    -0.221 NA
ATOM    140  CD2 HIS A   6       1.582  32.189  -9.095  0.00  0.00    +0.115 A 
ENDBRANCH 135 136
ENDBRANCH  78 135
ENDBRANCH   1  78
TORSDOF 47
REMARK  Name = ../refined-set-2016/4owv/4owv_pocket.pdb
REMARK  85 active torsions:
REMARK  status: ('A' for Active; 'I' for Inactive)
REMARK    1  A    between atoms: _1  and  _3
REMARK    2  A    between atoms: _3  and  _4
REMARK    3  A    between atoms: _3  and  _6
REMARK    4  A    between atoms: _6  and  _7
REMARK    5  A    between atoms: _7  and  _8
REMARK    6  A    between atoms: _10  and  _12
REMARK    7  A    between atoms: _12  and  _13
REMARK    8  A    between atoms: _12  and  _15
REMARK    9  A    between atoms: _15  and  _16
REMARK   10  A    between atoms: _16  and  _17
REMARK   11  A    between atoms: _19  and  _21
REMARK   12  A    between atoms: _21  and  _22
REMARK   13  A    between atoms: _21  and  _24
REMARK   14  A    between atoms: _24  and  _25
REMARK   15  A    between atoms: _30  and  _32
REMARK   16  A    between atoms: _32  and  _33
REMARK   17  A    between atoms: _35  and  _37
REMARK   18  A    between atoms: _37  and  _38
REMARK   19  A    between atoms: _37  and  _40
REMARK   20  A    between atoms: _40  and  _41
REMARK   21  A    between atoms: _46  and  _48
REMARK   22  A    between atoms: _48  and  _49
REMARK   23  A    between atoms: _48  and  _51
REMARK   24  A    between atoms: _51  and  _52
REMARK   25  A    between atoms: _52  and  _53
REMARK   26  A    between atoms: _53  and  _54
REMARK   27  A    between atoms: _63  and  _65
REMARK   28  A    between atoms: _65  and  _66
REMARK   29  A    between atoms: _65  and  _68
REMARK   30  A    between atoms: _68  and  _69
REMARK   31  A    between atoms: _75  and  _77
REMARK   32  A    between atoms: _77  and  _78
REMARK   33  A    between atoms: _82  and  _83
REMARK   34  A    between atoms: _88  and  _90
REMARK   35  A    between atoms: _90  and  _91
REMARK   36  A    between atoms: _90  and  _93
REMARK   37  A    between atoms: _93  and  _94
REMARK   38  A    between atoms: _94  and  _95
REMARK   39  A    between atoms: _95  and  _96
REMARK   40  A    between atoms: _105  and  _107
REMARK   41  A    between atoms: _107  and  _108
REMARK   42  A    between atoms: _107  and  _110
REMARK   43  A    between atoms: _110  and  _111
REMARK   44  A    between atoms: _117  and  _119
REMARK   45  A    between atoms: _119  and  _120
REMARK   46  A    between atoms: _119  and  _122
REMARK   47  A    between atoms: _122  and  _123
REMARK   48  A    between atoms: _129  and  _130
REMARK   49  A    between atoms: _135  and  _137
REMARK   50  A    between atoms: _137  and  _138
REMARK   51  A    between atoms: _137  and  _140
REMARK   52  A    between atoms: _140  and  _141
REMARK   53  A    between atoms: _143  and  _145
REMARK   54  A    between atoms: _145  and  _146
REMARK   55  A    between atoms: _145  and  _148
REMARK   56  A    between atoms: _148  and  _149
REMARK   57  A    between atoms: _154  and  _155
REMARK   58  A    between atoms: _157  and  _159
REMARK   59  A    between atoms: _159  and  _160
REMARK   60  A    between atoms: _159  and  _162
REMARK   61  A    between atoms: _162  and  _163
REMARK   62  A    between atoms: _163  and  _164
REMARK   63  A    between atoms: _164  and  _165
REMARK   64  A    between atoms: _174  and  _176
REMARK   65  A    between atoms: _176  and  _177
REMARK   66  A    between atoms: _176  and  _179
REMARK   67  A    between atoms: _179  and  _180
REMARK   68  A    between atoms: _185  and  _187
REMARK   69  A    between atoms: _187  and  _188
REMARK   70  A    between atoms: _191  and  _193
REMARK   71  A    between atoms: _193  and  _194
REMARK   72  A    between atoms: _197  and  _199
REMARK   73  A    between atoms: _199  and  _200
REMARK   74  A    between atoms: _203  and  _205
REMARK   75  A    between atoms: _205  and  _206
REMARK   76  A    between atoms: _205  and  _208
REMARK   77  A    between atoms: _208  and  _209
REMARK   78  A    between atoms: _209  and  _210
REMARK   79  A    between atoms: _210  and  _211
REMARK   80  A    between atoms: _220  and  _222
REMARK   81  A    between atoms: _222  and  _223
REMARK   82  A    between atoms: _222  and  _225
REMARK   83  A    between atoms: _225  and  _226
REMARK   84  A    between atoms: _226  and  _227
REMARK   85  A    between atoms: _227  and  _228
REMARK                            x       y       z     vdW  Elec       q    Type
REMARK                         _______ _______ _______ _____ _____    ______ ____
ROOT
ATOM      1  C   ARG A   1      -0.373  31.905 -24.410  0.00  0.00    +0.238 C 
ATOM      2  N   ARG A   2      -0.533  33.209 -24.222  0.00  0.00    -0.298 N 
ATOM      3  H   ARG A   2       0.126  33.715 -23.596  0.00  0.00    +0.150 HD
ATOM      4  O   ARG A   1      -1.104  31.211 -25.126  0.00  0.00    -0.274 OA
ENDROOT
BRANCH   1   5
ATOM      5  CA  ARG A   1       0.771  31.278 -23.650  0.00  0.00    +0.145 C 
BRANCH   5   6
ATOM      6  N   ARG A   1       1.973  32.082 -23.689  0.00  0.00    -0.238 NA
ATOM      7  H   ARG A   1       2.427  32.371 -22.799  0.00  0.00    +0.142 HD
ENDBRANCH   5   6
BRANCH   5   8
ATOM      8  CB  ARG A   1       0.319  31.030 -22.213  0.00  0.00    +0.030 C 
BRANCH   8   9
ATOM      9  CG  ARG A   1       1.251  30.100 -21.452  0.00  0.00    +0.045 C 
BRANCH   9  10
ATOM     10  CD  ARG A   1       0.411  29.037 -20.764  0.00  0.00    +0.174 C 
BRANCH  10  11
ATOM     11  NE  ARG A   1       0.162  29.317 -19.372  0.00  0.00    -0.265 N 
ATOM     12  CZ  ARG A   1      -0.934  28.980 -18.702  0.00  0.00    +0.342 C 
ATOM     13  NH2 ARG A   1      -0.995  29.283 -17.422  0.00  0.00    -0.292 N 
ATOM     14 HH21 ARG A   1      -1.839  29.033 -16.868  0.00  0.00    +0.255 HD
ATOM     15 HH22 ARG A   1      -0.199  29.772 -16.965  0.00  0.00    +0.255 HD
ATOM     16  NH1 ARG A   1      -1.964  28.369 -19.281  0.00  0.00    -0.292 N 
ATOM     17 HH11 ARG A   1      -2.804  28.122 -18.720  0.00  0.00    +0.255 HD
ATOM     18 HH12 ARG A   1      -1.929  28.138 -20.294  0.00  0.00    +0.255 HD
ATOM     19  HE  ARG A   1       0.903  29.826 -18.848  0.00  0.00    +0.259 HD
ENDBRANCH  10  11
ENDBRANCH   9  10
ENDBRANCH   8   9
ENDBRANCH   5   8
ENDBRANCH   1   5
BRANCH   2  20
ATOM     20  CA  ARG A   2      -1.603  33.948 -24.866  0.00  0.00    +0.137 C 
BRANCH  20  21
ATOM     21  C   ARG A   2      -1.334  33.966 -26.367  0.00  0.00    +0.227 C 
ATOM     22  O   ARG A   2      -2.236  33.719 -27.151  0.00  0.00    -0.286 OA
ENDBRANCH  20  21
BRANCH  20  23
ATOM     23  CB  ARG A   2      -1.686  35.400 -24.354  0.00  0.00    +0.031 C 
BRANCH  23  24
ATOM     24  CG  ARG A   2      -1.993  35.561 -22.872  0.00  0.00    +0.045 C 
BRANCH  24  25
ATOM     25  CD  ARG A   2      -2.333  37.011 -22.528  0.00  0.00    +0.174 C 
BRANCH  25  26
ATOM     26  NE  ARG A   2      -1.175  37.876 -22.266  0.00  0.00    -0.265 N 
ATOM     27  CZ  ARG A   2      -0.558  37.997 -21.085  0.00  0.00    +0.342 C 
ATOM     28  NH2 ARG A   2      -0.949  37.297 -20.021  0.00  0.00    -0.292 N 
ATOM     29 HH21 ARG A   2      -0.453  37.409 -19.114  0.00  0.00    +0.255 HD
ATOM     30 HH22 ARG A   2      -1.750  36.639 -20.098  0.00  0.00    +0.255 HD
ATOM     31  NH1 ARG A   2       0.462  38.826 -20.967  0.00  0.00    -0.292 N 
ATOM     32 HH11 ARG A   2       0.947  38.926 -20.053  0.00  0.00    +0.255 HD
ATOM     33 HH12 ARG A   2       0.780  39.379 -21.788  0.00  0.00    +0.255 HD
ATOM     34  HE  ARG A   2      -0.806  38.438 -23.060  0.00  0.00    +0.259 HD
ENDBRANCH  25  26
ENDBRANCH  24  25
ENDBRANCH  23  24
ENDBRANCH  20  23
ENDBRANCH   2  20
TORSDOF 12
REMARK  Name = ../refined-set-2016/4owv/4owv_pocket.pdb
REMARK  85 active torsions:
REMARK  status: ('A' for Active; 'I' for Inactive)
REMARK    1  A    between atoms: _1  and  _3
REMARK    2  A    between atoms: _3  and  _4
REMARK    3  A    between atoms: _3  and  _6
REMARK    4  A    between atoms: _6  and  _7
REMARK    5  A    between atoms: _7  and  _8
REMARK    6  A    between atoms: _10  and  _12
REMARK    7  A    between atoms: _12  and  _13
REMARK    8  A    between atoms: _12  and  _15
REMARK    9  A    between atoms: _15  and  _16
REMARK   10  A    between atoms: _16  and  _17
REMARK   11  A    between atoms: _19  and  _21
REMARK   12  A    between atoms: _21  and  _22
REMARK   13  A    between atoms: _21  and  _24
REMARK   14  A    between atoms: _24  and  _25
REMARK   15  A    between atoms: _30  and  _32
REMARK   16  A    between atoms: _32  and  _33
REMARK   17  A    between atoms: _35  and  _37
REMARK   18  A    between atoms: _37  and  _38
REMARK   19  A    between atoms: _37  and  _40
REMARK   20  A    between atoms: _40  and  _41
REMARK   21  A    between atoms: _46  and  _48
REMARK   22  A    between atoms: _48  and  _49
REMARK   23  A    between atoms: _48  and  _51
REMARK   24  A    between atoms: _51  and  _52
REMARK   25  A    between atoms: _52  and  _53
REMARK   26  A    between atoms: _53  and  _54
REMARK   27  A    between atoms: _63  and  _65
REMARK   28  A    between atoms: _65  and  _66
REMARK   29  A    between atoms: _65  and  _68
REMARK   30  A    between atoms: _68  and  _69
REMARK   31  A    between atoms: _75  and  _77
REMARK   32  A    between atoms: _77  and  _78
REMARK   33  A    between atoms: _82  and  _83
REMARK   34  A    between atoms: _88  and  _90
REMARK   35  A    between atoms: _90  and  _91
REMARK   36  A    between atoms: _90  and  _93
REMARK   37  A    between atoms: _93  and  _94
REMARK   38  A    between atoms: _94  and  _95
REMARK   39  A    between atoms: _95  and  _96
REMARK   40  A    between atoms: _105  and  _107
REMARK   41  A    between atoms: _107  and  _108
REMARK   42  A    between atoms: _107  and  _110
REMARK   43  A    between atoms: _110  and  _111
REMARK   44  A    between atoms: _117  and  _119
REMARK   45  A    between atoms: _119  and  _120
REMARK   46  A    between atoms: _119  and  _122
REMARK   47  A    between atoms: _122  and  _123
REMARK   48  A    between atoms: _129  and  _130
REMARK   49  A    between atoms: _135  and  _137
REMARK   50  A    between atoms: _137  and  _138
REMARK   51  A    between atoms: _137  and  _140
REMARK   52  A    between atoms: _140  and  _141
REMARK   53  A    between atoms: _143  and  _145
REMARK   54  A    between atoms: _145  and  _146
REMARK   55  A    between atoms: _145  and  _148
REMARK   56  A    between atoms: _148  and  _149
REMARK   57  A    between atoms: _154  and  _155
REMARK   58  A    between atoms: _157  and  _159
REMARK   59  A    between atoms: _159  and  _160
REMARK   60  A    between atoms: _159  and  _162
REMARK   61  A    between atoms: _162  and  _163
REMARK   62  A    between atoms: _163  and  _164
REMARK   63  A    between atoms: _164  and  _165
REMARK   64  A    between atoms: _174  and  _176
REMARK   65  A    between atoms: _176  and  _177
REMARK   66  A    between atoms: _176  and  _179
REMARK   67  A    between atoms: _179  and  _180
REMARK   68  A    between atoms: _185  and  _187
REMARK   69  A    between atoms: _187  and  _188
REMARK   70  A    between atoms: _191  and  _193
REMARK   71  A    between atoms: _193  and  _194
REMARK   72  A    between atoms: _197  and  _199
REMARK   73  A    between atoms: _199  and  _200
REMARK   74  A    between atoms: _203  and  _205
REMARK   75  A    between atoms: _205  and  _206
REMARK   76  A    between atoms: _205  and  _208
REMARK   77  A    between atoms: _208  and  _209
REMARK   78  A    between atoms: _209  and  _210
REMARK   79  A    between atoms: _210  and  _211
REMARK   80  A    between atoms: _220  and  _222
REMARK   81  A    between atoms: _222  and  _223
REMARK   82  A    between atoms: _222  and  _225
REMARK   83  A    between atoms: _225  and  _226
REMARK   84  A    between atoms: _226  and  _227
REMARK   85  A    between atoms: _227  and  _228
REMARK                            x       y       z     vdW  Elec       q    Type
REMARK                         _______ _______ _______ _____ _____    ______ ____
ROOT
ATOM      1  O   HOH     1       7.099  34.889  -9.499  0.00  0.00    +0.000 OA
ENDROOT
TORSDOF 0
REMARK  Name = ../refined-set-2016/4owv/4owv_pocket.pdb
REMARK  85 active torsions:
REMARK  status: ('A' for Active; 'I' for Inactive)
REMARK    1  A    between atoms: _1  and  _3
REMARK    2  A    between atoms: _3  and  _4
REMARK    3  A    between atoms: _3  and  _6
REMARK    4  A    between atoms: _6  and  _7
REMARK    5  A    between atoms: _7  and  _8
REMARK    6  A    between atoms: _10  and  _12
REMARK    7  A    between atoms: _12  and  _13
REMARK    8  A    between atoms: _12  and  _15
REMARK    9  A    between atoms: _15  and  _16
REMARK   10  A    between atoms: _16  and  _17
REMARK   11  A    between atoms: _19  and  _21
REMARK   12  A    between atoms: _21  and  _22
REMARK   13  A    between atoms: _21  and  _24
REMARK   14  A    between atoms: _24  and  _25
REMARK   15  A    between atoms: _30  and  _32
REMARK   16  A    between atoms: _32  and  _33
REMARK   17  A    between atoms: _35  and  _37
REMARK   18  A    between atoms: _37  and  _38
REMARK   19  A    between atoms: _37  and  _40
REMARK   20  A    between atoms: _40  and  _41
REMARK   21  A    between atoms: _46  and  _48
REMARK   22  A    between atoms: _48  and  _49
REMARK   23  A    between atoms: _48  and  _51
REMARK   24  A    between atoms: _51  and  _52
REMARK   25  A    between atoms: _52  and  _53
REMARK   26  A    between atoms: _53  and  _54
REMARK   27  A    between atoms: _63  and  _65
REMARK   28  A    between atoms: _65  and  _66
REMARK   29  A    between atoms: _65  and  _68
REMARK   30  A    between atoms: _68  and  _69
REMARK   31  A    between atoms: _75  and  _77
REMARK   32  A    between atoms: _77  and  _78
REMARK   33  A    between atoms: _82  and  _83
REMARK   34  A    between atoms: _88  and  _90
REMARK   35  A    between atoms: _90  and  _91
REMARK   36  A    between atoms: _90  and  _93
REMARK   37  A    between atoms: _93  and  _94
REMARK   38  A    between atoms: _94  and  _95
REMARK   39  A    between atoms: _95  and  _96
REMARK   40  A    between atoms: _105  and  _107
REMARK   41  A    between atoms: _107  and  _108
REMARK   42  A    between atoms: _107  and  _110
REMARK   43  A    between atoms: _110  and  _111
REMARK   44  A    between atoms: _117  and  _119
REMARK   45  A    between atoms: _119  and  _120
REMARK   46  A    between atoms: _119  and  _122
REMARK   47  A    between atoms: _122  and  _123
REMARK   48  A    between atoms: _129  and  _130
REMARK   49  A    between atoms: _135  and  _137
REMARK   50  A    between atoms: _137  and  _138
REMARK   51  A    between atoms: _137  and  _140
REMARK   52  A    between atoms: _140  and  _141
REMARK   53  A    between atoms: _143  and  _145
REMARK   54  A    between atoms: _145  and  _146
REMARK   55  A    between atoms: _145  and  _148
REMARK   56  A    between atoms: _148  and  _149
REMARK   57  A    between atoms: _154  and  _155
REMARK   58  A    between atoms: _157  and  _159
REMARK   59  A    between atoms: _159  and  _160
REMARK   60  A    between atoms: _159  and  _162
REMARK   61  A    between atoms: _162  and  _163
REMARK   62  A    between atoms: _163  and  _164
REMARK   63  A    between atoms: _164  and  _165
REMARK   64  A    between atoms: _174  and  _176
REMARK   65  A    between atoms: _176  and  _177
REMARK   66  A    between atoms: _176  and  _179
REMARK   67  A    between atoms: _179  and  _180
REMARK   68  A    between atoms: _185  and  _187
REMARK   69  A    between atoms: _187  and  _188
REMARK   70  A    between atoms: _191  and  _193
REMARK   71  A    between atoms: _193  and  _194
REMARK   72  A    between atoms: _197  and  _199
REMARK   73  A    between atoms: _199  and  _200
REMARK   74  A    between atoms: _203  and  _205
REMARK   75  A    between atoms: _205  and  _206
REMARK   76  A    between atoms: _205  and  _208
REMARK   77  A    between atoms: _208  and  _209
REMARK   78  A    between atoms: _209  and  _210
REMARK   79  A    between atoms: _210  and  _211
REMARK   80  A    between atoms: _220  and  _222
REMARK   81  A    between atoms: _222  and  _223
REMARK   82  A    between atoms: _222  and  _225
REMARK   83  A    between atoms: _225  and  _226
REMARK   84  A    between atoms: _226  and  _227
REMARK   85  A    between atoms: _227  and  _228
REMARK                            x       y       z     vdW  Elec       q    Type
REMARK                         _______ _______ _______ _____ _____    ______ ____
ROOT
ATOM      1  O   HOH     1       6.370  32.334  -9.574  0.00  0.00    +0.000 OA
ENDROOT
TORSDOF 0
REMARK  Name = ../refined-set-2016/4owv/4owv_pocket.pdb
REMARK  85 active torsions:
REMARK  status: ('A' for Active; 'I' for Inactive)
REMARK    1  A    between atoms: _1  and  _3
REMARK    2  A    between atoms: _3  and  _4
REMARK    3  A    between atoms: _3  and  _6
REMARK    4  A    between atoms: _6  and  _7
REMARK    5  A    between atoms: _7  and  _8
REMARK    6  A    between atoms: _10  and  _12
REMARK    7  A    between atoms: _12  and  _13
REMARK    8  A    between atoms: _12  and  _15
REMARK    9  A    between atoms: _15  and  _16
REMARK   10  A    between atoms: _16  and  _17
REMARK   11  A    between atoms: _19  and  _21
REMARK   12  A    between atoms: _21  and  _22
REMARK   13  A    between atoms: _21  and  _24
REMARK   14  A    between atoms: _24  and  _25
REMARK   15  A    between atoms: _30  and  _32
REMARK   16  A    between atoms: _32  and  _33
REMARK   17  A    between atoms: _35  and  _37
REMARK   18  A    between atoms: _37  and  _38
REMARK   19  A    between atoms: _37  and  _40
REMARK   20  A    between atoms: _40  and  _41
REMARK   21  A    between atoms: _46  and  _48
REMARK   22  A    between atoms: _48  and  _49
REMARK   23  A    between atoms: _48  and  _51
REMARK   24  A    between atoms: _51  and  _52
REMARK   25  A    between atoms: _52  and  _53
REMARK   26  A    between atoms: _53  and  _54
REMARK   27  A    between atoms: _63  and  _65
REMARK   28  A    between atoms: _65  and  _66
REMARK   29  A    between atoms: _65  and  _68
REMARK   30  A    between atoms: _68  and  _69
REMARK   31  A    between atoms: _75  and  _77
REMARK   32  A    between atoms: _77  and  _78
REMARK   33  A    between atoms: _82  and  _83
REMARK   34  A    between atoms: _88  and  _90
REMARK   35  A    between atoms: _90  and  _91
REMARK   36  A    between atoms: _90  and  _93
REMARK   37  A    between atoms: _93  and  _94
REMARK   38  A    between atoms: _94  and  _95
REMARK   39  A    between atoms: _95  and  _96
REMARK   40  A    between atoms: _105  and  _107
REMARK   41  A    between atoms: _107  and  _108
REMARK   42  A    between atoms: _107  and  _110
REMARK   43  A    between atoms: _110  and  _111
REMARK   44  A    between atoms: _117  and  _119
REMARK   45  A    between atoms: _119  and  _120
REMARK   46  A    between atoms: _119  and  _122
REMARK   47  A    between atoms: _122  and  _123
REMARK   48  A    between atoms: _129  and  _130
REMARK   49  A    between atoms: _135  and  _137
REMARK   50  A    between atoms: _137  and  _138
REMARK   51  A    between atoms: _137  and  _140
REMARK   52  A    between atoms: _140  and  _141
REMARK   53  A    between atoms: _143  and  _145
REMARK   54  A    between atoms: _145  and  _146
REMARK   55  A    between atoms: _145  and  _148
REMARK   56  A    between atoms: _148  and  _149
REMARK   57  A    between atoms: _154  and  _155
REMARK   58  A    between atoms: _157  and  _159
REMARK   59  A    between atoms: _159  and  _160
REMARK   60  A    between atoms: _159  and  _162
REMARK   61  A    between atoms: _162  and  _163
REMARK   62  A    between atoms: _163  and  _164
REMARK   63  A    between atoms: _164  and  _165
REMARK   64  A    between atoms: _174  and  _176
REMARK   65  A    between atoms: _176  and  _177
REMARK   66  A    between atoms: _176  and  _179
REMARK   67  A    between atoms: _179  and  _180
REMARK   68  A    between atoms: _185  and  _187
REMARK   69  A    between atoms: _187  and  _188
REMARK   70  A    between atoms: _191  and  _193
REMARK   71  A    between atoms: _193  and  _194
REMARK   72  A    between atoms: _197  and  _199
REMARK   73  A    between atoms: _199  and  _200
REMARK   74  A    between atoms: _203  and  _205
REMARK   75  A    between atoms: _205  and  _206
REMARK   76  A    between atoms: _205  and  _208
REMARK   77  A    between atoms: _208  and  _209
REMARK   78  A    between atoms: _209  and  _210
REMARK   79  A    between atoms: _210  and  _211
REMARK   80  A    between atoms: _220  and  _222
REMARK   81  A    between atoms: _222  and  _223
REMARK   82  A    between atoms: _222  and  _225
REMARK   83  A    between atoms: _225  and  _226
REMARK   84  A    between atoms: _226  and  _227
REMARK   85  A    between atoms: _227  and  _228
REMARK                            x       y       z     vdW  Elec       q    Type
REMARK                         _______ _______ _______ _____ _____    ______ ____
ROOT
ATOM      1  O   HOH     1       2.417  38.626 -19.428  0.00  0.00    +0.000 OA
ENDROOT
TORSDOF 0
REMARK  Name = ../refined-set-2016/4owv/4owv_pocket.pdb
REMARK  85 active torsions:
REMARK  status: ('A' for Active; 'I' for Inactive)
REMARK    1  A    between atoms: _1  and  _3
REMARK    2  A    between atoms: _3  and  _4
REMARK    3  A    between atoms: _3  and  _6
REMARK    4  A    between atoms: _6  and  _7
REMARK    5  A    between atoms: _7  and  _8
REMARK    6  A    between atoms: _10  and  _12
REMARK    7  A    between atoms: _12  and  _13
REMARK    8  A    between atoms: _12  and  _15
REMARK    9  A    between atoms: _15  and  _16
REMARK   10  A    between atoms: _16  and  _17
REMARK   11  A    between atoms: _19  and  _21
REMARK   12  A    between atoms: _21  and  _22
REMARK   13  A    between atoms: _21  and  _24
REMARK   14  A    between atoms: _24  and  _25
REMARK   15  A    between atoms: _30  and  _32
REMARK   16  A    between atoms: _32  and  _33
REMARK   17  A    between atoms: _35  and  _37
REMARK   18  A    between atoms: _37  and  _38
REMARK   19  A    between atoms: _37  and  _40
REMARK   20  A    between atoms: _40  and  _41
REMARK   21  A    between atoms: _46  and  _48
REMARK   22  A    between atoms: _48  and  _49
REMARK   23  A    between atoms: _48  and  _51
REMARK   24  A    between atoms: _51  and  _52
REMARK   25  A    between atoms: _52  and  _53
REMARK   26  A    between atoms: _53  and  _54
REMARK   27  A    between atoms: _63  and  _65
REMARK   28  A    between atoms: _65  and  _66
REMARK   29  A    between atoms: _65  and  _68
REMARK   30  A    between atoms: _68  and  _69
REMARK   31  A    between atoms: _75  and  _77
REMARK   32  A    between atoms: _77  and  _78
REMARK   33  A    between atoms: _82  and  _83
REMARK   34  A    between atoms: _88  and  _90
REMARK   35  A    between atoms: _90  and  _91
REMARK   36  A    between atoms: _90  and  _93
REMARK   37  A    between atoms: _93  and  _94
REMARK   38  A    between atoms: _94  and  _95
REMARK   39  A    between atoms: _95  and  _96
REMARK   40  A    between atoms: _105  and  _107
REMARK   41  A    between atoms: _107  and  _108
REMARK   42  A    between atoms: _107  and  _110
REMARK   43  A    between atoms: _110  and  _111
REMARK   44  A    between atoms: _117  and  _119
REMARK   45  A    between atoms: _119  and  _120
REMARK   46  A    between atoms: _119  and  _122
REMARK   47  A    between atoms: _122  and  _123
REMARK   48  A    between atoms: _129  and  _130
REMARK   49  A    between atoms: _135  and  _137
REMARK   50  A    between atoms: _137  and  _138
REMARK   51  A    between atoms: _137  and  _140
REMARK   52  A    between atoms: _140  and  _141
REMARK   53  A    between atoms: _143  and  _145
REMARK   54  A    between atoms: _145  and  _146
REMARK   55  A    between atoms: _145  and  _148
REMARK   56  A    between atoms: _148  and  _149
REMARK   57  A    between atoms: _154  and  _155
REMARK   58  A    between atoms: _157  and  _159
REMARK   59  A    between atoms: _159  and  _160
REMARK   60  A    between atoms: _159  and  _162
REMARK   61  A    between atoms: _162  and  _163
REMARK   62  A    between atoms: _163  and  _164
REMARK   63  A    between atoms: _164  and  _165
REMARK   64  A    between atoms: _174  and  _176
REMARK   65  A    between atoms: _176  and  _177
REMARK   66  A    between atoms: _176  and  _179
REMARK   67  A    between atoms: _179  and  _180
REMARK   68  A    between atoms: _185  and  _187
REMARK   69  A    between atoms: _187  and  _188
REMARK   70  A    between atoms: _191  and  _193
REMARK   71  A    between atoms: _193  and  _194
REMARK   72  A    between atoms: _197  and  _199
REMARK   73  A    between atoms: _199  and  _200
REMARK   74  A    between atoms: _203  and  _205
REMARK   75  A    between atoms: _205  and  _206
REMARK   76  A    between atoms: _205  and  _208
REMARK   77  A    between atoms: _208  and  _209
REMARK   78  A    between atoms: _209  and  _210
REMARK   79  A    between atoms: _210  and  _211
REMARK   80  A    between atoms: _220  and  _222
REMARK   81  A    between atoms: _222  and  _223
REMARK   82  A    between atoms: _222  and  _225
REMARK   83  A    between atoms: _225  and  _226
REMARK   84  A    between atoms: _226  and  _227
REMARK   85  A    between atoms: _227  and  _228
REMARK                            x       y       z     vdW  Elec       q    Type
REMARK                         _______ _______ _______ _____ _____    ______ ____
ROOT
ATOM      1  O   HOH     1       8.152  33.875 -17.081  0.00  0.00    +0.000 OA
ENDROOT
TORSDOF 0
REMARK  Name = ../refined-set-2016/4owv/4owv_pocket.pdb
REMARK  85 active torsions:
REMARK  status: ('A' for Active; 'I' for Inactive)
REMARK    1  A    between atoms: _1  and  _3
REMARK    2  A    between atoms: _3  and  _4
REMARK    3  A    between atoms: _3  and  _6
REMARK    4  A    between atoms: _6  and  _7
REMARK    5  A    between atoms: _7  and  _8
REMARK    6  A    between atoms: _10  and  _12
REMARK    7  A    between atoms: _12  and  _13
REMARK    8  A    between atoms: _12  and  _15
REMARK    9  A    between atoms: _15  and  _16
REMARK   10  A    between atoms: _16  and  _17
REMARK   11  A    between atoms: _19  and  _21
REMARK   12  A    between atoms: _21  and  _22
REMARK   13  A    between atoms: _21  and  _24
REMARK   14  A    between atoms: _24  and  _25
REMARK   15  A    between atoms: _30  and  _32
REMARK   16  A    between atoms: _32  and  _33
REMARK   17  A    between atoms: _35  and  _37
REMARK   18  A    between atoms: _37  and  _38
REMARK   19  A    between atoms: _37  and  _40
REMARK   20  A    between atoms: _40  and  _41
REMARK   21  A    between atoms: _46  and  _48
REMARK   22  A    between atoms: _48  and  _49
REMARK   23  A    between atoms: _48  and  _51
REMARK   24  A    between atoms: _51  and  _52
REMARK   25  A    between atoms: _52  and  _53
REMARK   26  A    between atoms: _53  and  _54
REMARK   27  A    between atoms: _63  and  _65
REMARK   28  A    between atoms: _65  and  _66
REMARK   29  A    between atoms: _65  and  _68
REMARK   30  A    between atoms: _68  and  _69
REMARK   31  A    between atoms: _75  and  _77
REMARK   32  A    between atoms: _77  and  _78
REMARK   33  A    between atoms: _82  and  _83
REMARK   34  A    between atoms: _88  and  _90
REMARK   35  A    between atoms: _90  and  _91
REMARK   36  A    between atoms: _90  and  _93
REMARK   37  A    between atoms: _93  and  _94
REMARK   38  A    between atoms: _94  and  _95
REMARK   39  A    between atoms: _95  and  _96
REMARK   40  A    between atoms: _105  and  _107
REMARK   41  A    between atoms: _107  and  _108
REMARK   42  A    between atoms: _107  and  _110
REMARK   43  A    between atoms: _110  and  _111
REMARK   44  A    between atoms: _117  and  _119
REMARK   45  A    between atoms: _119  and  _120
REMARK   46  A    between atoms: _119  and  _122
REMARK   47  A    between atoms: _122  and  _123
REMARK   48  A    between atoms: _129  and  _130
REMARK   49  A    between atoms: _135  and  _137
REMARK   50  A    between atoms: _137  and  _138
REMARK   51  A    between atoms: _137  and  _140
REMARK   52  A    between atoms: _140  and  _141
REMARK   53  A    between atoms: _143  and  _145
REMARK   54  A    between atoms: _145  and  _146
REMARK   55  A    between atoms: _145  and  _148
REMARK   56  A    between atoms: _148  and  _149
REMARK   57  A    between atoms: _154  and  _155
REMARK   58  A    between atoms: _157  and  _159
REMARK   59  A    between atoms: _159  and  _160
REMARK   60  A    between atoms: _159  and  _162
REMARK   61  A    between atoms: _162  and  _163
REMARK   62  A    between atoms: _163  and  _164
REMARK   63  A    between atoms: _164  and  _165
REMARK   64  A    between atoms: _174  and  _176
REMARK   65  A    between atoms: _176  and  _177
REMARK   66  A    between atoms: _176  and  _179
REMARK   67  A    between atoms: _179  and  _180
REMARK   68  A    between atoms: _185  and  _187
REMARK   69  A    between atoms: _187  and  _188
REMARK   70  A    between atoms: _191  and  _193
REMARK   71  A    between atoms: _193  and  _194
REMARK   72  A    between atoms: _197  and  _199
REMARK   73  A    between atoms: _199  and  _200
REMARK   74  A    between atoms: _203  and  _205
REMARK   75  A    between atoms: _205  and  _206
REMARK   76  A    between atoms: _205  and  _208
REMARK   77  A    between atoms: _208  and  _209
REMARK   78  A    between atoms: _209  and  _210
REMARK   79  A    between atoms: _210  and  _211
REMARK   80  A    between atoms: _220  and  _222
REMARK   81  A    between atoms: _222  and  _223
REMARK   82  A    between atoms: _222  and  _225
REMARK   83  A    between atoms: _225  and  _226
REMARK   84  A    between atoms: _226  and  _227
REMARK   85  A    between atoms: _227  and  _228
REMARK                            x       y       z     vdW  Elec       q    Type
REMARK                         _______ _______ _______ _____ _____    ______ ____
ROOT
ATOM      1  O   HOH     1       4.718  40.952 -13.241  0.00  0.00    +0.000 OA
ENDROOT
TORSDOF 0
REMARK  Name = ../refined-set-2016/4owv/4owv_pocket.pdb
REMARK  85 active torsions:
REMARK  status: ('A' for Active; 'I' for Inactive)
REMARK    1  A    between atoms: _1  and  _3
REMARK    2  A    between atoms: _3  and  _4
REMARK    3  A    between atoms: _3  and  _6
REMARK    4  A    between atoms: _6  and  _7
REMARK    5  A    between atoms: _7  and  _8
REMARK    6  A    between atoms: _10  and  _12
REMARK    7  A    between atoms: _12  and  _13
REMARK    8  A    between atoms: _12  and  _15
REMARK    9  A    between atoms: _15  and  _16
REMARK   10  A    between atoms: _16  and  _17
REMARK   11  A    between atoms: _19  and  _21
REMARK   12  A    between atoms: _21  and  _22
REMARK   13  A    between atoms: _21  and  _24
REMARK   14  A    between atoms: _24  and  _25
REMARK   15  A    between atoms: _30  and  _32
REMARK   16  A    between atoms: _32  and  _33
REMARK   17  A    between atoms: _35  and  _37
REMARK   18  A    between atoms: _37  and  _38
REMARK   19  A    between atoms: _37  and  _40
REMARK   20  A    between atoms: _40  and  _41
REMARK   21  A    between atoms: _46  and  _48
REMARK   22  A    between atoms: _48  and  _49
REMARK   23  A    between atoms: _48  and  _51
REMARK   24  A    between atoms: _51  and  _52
REMARK   25  A    between atoms: _52  and  _53
REMARK   26  A    between atoms: _53  and  _54
REMARK   27  A    between atoms: _63  and  _65
REMARK   28  A    between atoms: _65  and  _66
REMARK   29  A    between atoms: _65  and  _68
REMARK   30  A    between atoms: _68  and  _69
REMARK   31  A    between atoms: _75  and  _77
REMARK   32  A    between atoms: _77  and  _78
REMARK   33  A    between atoms: _82  and  _83
REMARK   34  A    between atoms: _88  and  _90
REMARK   35  A    between atoms: _90  and  _91
REMARK   36  A    between atoms: _90  and  _93
REMARK   37  A    between atoms: _93  and  _94
REMARK   38  A    between atoms: _94  and  _95
REMARK   39  A    between atoms: _95  and  _96
REMARK   40  A    between atoms: _105  and  _107
REMARK   41  A    between atoms: _107  and  _108
REMARK   42  A    between atoms: _107  and  _110
REMARK   43  A    between atoms: _110  and  _111
REMARK   44  A    between atoms: _117  and  _119
REMARK   45  A    between atoms: _119  and  _120
REMARK   46  A    between atoms: _119  and  _122
REMARK   47  A    between atoms: _122  and  _123
REMARK   48  A    between atoms: _129  and  _130
REMARK   49  A    between atoms: _135  and  _137
REMARK   50  A    between atoms: _137  and  _138
REMARK   51  A    between atoms: _137  and  _140
REMARK   52  A    between atoms: _140  and  _141
REMARK   53  A    between atoms: _143  and  _145
REMARK   54  A    between atoms: _145  and  _146
REMARK   55  A    between atoms: _145  and  _148
REMARK   56  A    between atoms: _148  and  _149
REMARK   57  A    between atoms: _154  and  _155
REMARK   58  A    between atoms: _157  and  _159
REMARK   59  A    between atoms: _159  and  _160
REMARK   60  A    between atoms: _159  and  _162
REMARK   61  A    between atoms: _162  and  _163
REMARK   62  A    between atoms: _163  and  _164
REMARK   63  A    between atoms: _164  and  _165
REMARK   64  A    between atoms: _174  and  _176
REMARK   65  A    between atoms: _176  and  _177
REMARK   66  A    between atoms: _176  and  _179
REMARK   67  A    between atoms: _179  and  _180
REMARK   68  A    between atoms: _185  and  _187
REMARK   69  A    between atoms: _187  and  _188
REMARK   70  A    between atoms: _191  and  _193
REMARK   71  A    between atoms: _193  and  _194
REMARK   72  A    between atoms: _197  and  _199
REMARK   73  A    between atoms: _199  and  _200
REMARK   74  A    between atoms: _203  and  _205
REMARK   75  A    between atoms: _205  and  _206
REMARK   76  A    between atoms: _205  and  _208
REMARK   77  A    between atoms: _208  and  _209
REMARK   78  A    between atoms: _209  and  _210
REMARK   79  A    between atoms: _210  and  _211
REMARK   80  A    between atoms: _220  and  _222
REMARK   81  A    between atoms: _222  and  _223
REMARK   82  A    between atoms: _222  and  _225
REMARK   83  A    between atoms: _225  and  _226
REMARK   84  A    between atoms: _226  and  _227
REMARK   85  A    between atoms: _227  and  _228
REMARK                            x       y       z     vdW  Elec       q    Type
REMARK                         _______ _______ _______ _____ _____    ______ ____
ROOT
ATOM      1  O   HOH     1      -2.964  31.935 -21.889  0.00  0.00    +0.000 OA
ENDROOT
TORSDOF 0
REMARK  Name = ../refined-set-2016/4owv/4owv_pocket.pdb
REMARK  85 active torsions:
REMARK  status: ('A' for Active; 'I' for Inactive)
REMARK    1  A    between atoms: _1  and  _3
REMARK    2  A    between atoms: _3  and  _4
REMARK    3  A    between atoms: _3  and  _6
REMARK    4  A    between atoms: _6  and  _7
REMARK    5  A    between atoms: _7  and  _8
REMARK    6  A    between atoms: _10  and  _12
REMARK    7  A    between atoms: _12  and  _13
REMARK    8  A    between atoms: _12  and  _15
REMARK    9  A    between atoms: _15  and  _16
REMARK   10  A    between atoms: _16  and  _17
REMARK   11  A    between atoms: _19  and  _21
REMARK   12  A    between atoms: _21  and  _22
REMARK   13  A    between atoms: _21  and  _24
REMARK   14  A    between atoms: _24  and  _25
REMARK   15  A    between atoms: _30  and  _32
REMARK   16  A    between atoms: _32  and  _33
REMARK   17  A    between atoms: _35  and  _37
REMARK   18  A    between atoms: _37  and  _38
REMARK   19  A    between atoms: _37  and  _40
REMARK   20  A    between atoms: _40  and  _41
REMARK   21  A    between atoms: _46  and  _48
REMARK   22  A    between atoms: _48  and  _49
REMARK   23  A    between atoms: _48  and  _51
REMARK   24  A    between atoms: _51  and  _52
REMARK   25  A    between atoms: _52  and  _53
REMARK   26  A    between atoms: _53  and  _54
REMARK   27  A    between atoms: _63  and  _65
REMARK   28  A    between atoms: _65  and  _66
REMARK   29  A    between atoms: _65  and  _68
REMARK   30  A    between atoms: _68  and  _69
REMARK   31  A    between atoms: _75  and  _77
REMARK   32  A    between atoms: _77  and  _78
REMARK   33  A    between atoms: _82  and  _83
REMARK   34  A    between atoms: _88  and  _90
REMARK   35  A    between atoms: _90  and  _91
REMARK   36  A    between atoms: _90  and  _93
REMARK   37  A    between atoms: _93  and  _94
REMARK   38  A    between atoms: _94  and  _95
REMARK   39  A    between atoms: _95  and  _96
REMARK   40  A    between atoms: _105  and  _107
REMARK   41  A    between atoms: _107  and  _108
REMARK   42  A    between atoms: _107  and  _110
REMARK   43  A    between atoms: _110  and  _111
REMARK   44  A    between atoms: _117  and  _119
REMARK   45  A    between atoms: _119  and  _120
REMARK   46  A    between atoms: _119  and  _122
REMARK   47  A    between atoms: _122  and  _123
REMARK   48  A    between atoms: _129  and  _130
REMARK   49  A    between atoms: _135  and  _137
REMARK   50  A    between atoms: _137  and  _138
REMARK   51  A    between atoms: _137  and  _140
REMARK   52  A    between atoms: _140  and  _141
REMARK   53  A    between atoms: _143  and  _145
REMARK   54  A    between atoms: _145  and  _146
REMARK   55  A    between atoms: _145  and  _148
REMARK   56  A    between atoms: _148  and  _149
REMARK   57  A    between atoms: _154  and  _155
REMARK   58  A    between atoms: _157  and  _159
REMARK   59  A    between atoms: _159  and  _160
REMARK   60  A    between atoms: _159  and  _162
REMARK   61  A    between atoms: _162  and  _163
REMARK   62  A    between atoms: _163  and  _164
REMARK   63  A    between atoms: _164  and  _165
REMARK   64  A    between atoms: _174  and  _176
REMARK   65  A    between atoms: _176  and  _177
REMARK   66  A    between atoms: _176  and  _179
REMARK   67  A    between atoms: _179  and  _180
REMARK   68  A    between atoms: _185  and  _187
REMARK   69  A    between atoms: _187  and  _188
REMARK   70  A    between atoms: _191  and  _193
REMARK   71  A    between atoms: _193  and  _194
REMARK   72  A    between atoms: _197  and  _199
REMARK   73  A    between atoms: _199  and  _200
REMARK   74  A    between atoms: _203  and  _205
REMARK   75  A    between atoms: _205  and  _206
REMARK   76  A    between atoms: _205  and  _208
REMARK   77  A    between atoms: _208  and  _209
REMARK   78  A    between atoms: _209  and  _210
REMARK   79  A    between atoms: _210  and  _211
REMARK   80  A    between atoms: _220  and  _222
REMARK   81  A    between atoms: _222  and  _223
REMARK   82  A    between atoms: _222  and  _225
REMARK   83  A    between atoms: _225  and  _226
REMARK   84  A    between atoms: _226  and  _227
REMARK   85  A    between atoms: _227  and  _228
REMARK                            x       y       z     vdW  Elec       q    Type
REMARK                         _______ _______ _______ _____ _____    ______ ____
ROOT
ATOM      1  O   HOH     1       4.673  40.746 -19.701  0.00  0.00    +0.000 OA
ENDROOT
TORSDOF 0
REMARK  Name = ../refined-set-2016/4owv/4owv_pocket.pdb
REMARK  85 active torsions:
REMARK  status: ('A' for Active; 'I' for Inactive)
REMARK    1  A    between atoms: _1  and  _3
REMARK    2  A    between atoms: _3  and  _4
REMARK    3  A    between atoms: _3  and  _6
REMARK    4  A    between atoms: _6  and  _7
REMARK    5  A    between atoms: _7  and  _8
REMARK    6  A    between atoms: _10  and  _12
REMARK    7  A    between atoms: _12  and  _13
REMARK    8  A    between atoms: _12  and  _15
REMARK    9  A    between atoms: _15  and  _16
REMARK   10  A    between atoms: _16  and  _17
REMARK   11  A    between atoms: _19  and  _21
REMARK   12  A    between atoms: _21  and  _22
REMARK   13  A    between atoms: _21  and  _24
REMARK   14  A    between atoms: _24  and  _25
REMARK   15  A    between atoms: _30  and  _32
REMARK   16  A    between atoms: _32  and  _33
REMARK   17  A    between atoms: _35  and  _37
REMARK   18  A    between atoms: _37  and  _38
REMARK   19  A    between atoms: _37  and  _40
REMARK   20  A    between atoms: _40  and  _41
REMARK   21  A    between atoms: _46  and  _48
REMARK   22  A    between atoms: _48  and  _49
REMARK   23  A    between atoms: _48  and  _51
REMARK   24  A    between atoms: _51  and  _52
REMARK   25  A    between atoms: _52  and  _53
REMARK   26  A    between atoms: _53  and  _54
REMARK   27  A    between atoms: _63  and  _65
REMARK   28  A    between atoms: _65  and  _66
REMARK   29  A    between atoms: _65  and  _68
REMARK   30  A    between atoms: _68  and  _69
REMARK   31  A    between atoms: _75  and  _77
REMARK   32  A    between atoms: _77  and  _78
REMARK   33  A    between atoms: _82  and  _83
REMARK   34  A    between atoms: _88  and  _90
REMARK   35  A    between atoms: _90  and  _91
REMARK   36  A    between atoms: _90  and  _93
REMARK   37  A    between atoms: _93  and  _94
REMARK   38  A    between atoms: _94  and  _95
REMARK   39  A    between atoms: _95  and  _96
REMARK   40  A    between atoms: _105  and  _107
REMARK   41  A    between atoms: _107  and  _108
REMARK   42  A    between atoms: _107  and  _110
REMARK   43  A    between atoms: _110  and  _111
REMARK   44  A    between atoms: _117  and  _119
REMARK   45  A    between atoms: _119  and  _120
REMARK   46  A    between atoms: _119  and  _122
REMARK   47  A    between atoms: _122  and  _123
REMARK   48  A    between atoms: _129  and  _130
REMARK   49  A    between atoms: _135  and  _137
REMARK   50  A    between atoms: _137  and  _138
REMARK   51  A    between atoms: _137  and  _140
REMARK   52  A    between atoms: _140  and  _141
REMARK   53  A    between atoms: _143  and  _145
REMARK   54  A    between atoms: _145  and  _146
REMARK   55  A    between atoms: _145  and  _148
REMARK   56  A    between atoms: _148  and  _149
REMARK   57  A    between atoms: _154  and  _155
REMARK   58  A    between atoms: _157  and  _159
REMARK   59  A    between atoms: _159  and  _160
REMARK   60  A    between atoms: _159  and  _162
REMARK   61  A    between atoms: _162  and  _163
REMARK   62  A    between atoms: _163  and  _164
REMARK   63  A    between atoms: _164  and  _165
REMARK   64  A    between atoms: _174  and  _176
REMARK   65  A    between atoms: _176  and  _177
REMARK   66  A    between atoms: _176  and  _179
REMARK   67  A    between atoms: _179  and  _180
REMARK   68  A    between atoms: _185  and  _187
REMARK   69  A    between atoms: _187  and  _188
REMARK   70  A    between atoms: _191  and  _193
REMARK   71  A    between atoms: _193  and  _194
REMARK   72  A    between atoms: _197  and  _199
REMARK   73  A    between atoms: _199  and  _200
REMARK   74  A    between atoms: _203  and  _205
REMARK   75  A    between atoms: _205  and  _206
REMARK   76  A    between atoms: _205  and  _208
REMARK   77  A    between atoms: _208  and  _209
REMARK   78  A    between atoms: _209  and  _210
REMARK   79  A    between atoms: _210  and  _211
REMARK   80  A    between atoms: _220  and  _222
REMARK   81  A    between atoms: _222  and  _223
REMARK   82  A    between atoms: _222  and  _225
REMARK   83  A    between atoms: _225  and  _226
REMARK   84  A    between atoms: _226  and  _227
REMARK   85  A    between atoms: _227  and  _228
REMARK                            x       y       z     vdW  Elec       q    Type
REMARK                         _______ _______ _______ _____ _____    ______ ____
ROOT
ATOM      1  O   HOH     1       8.374  42.487 -18.053  0.00  0.00    +0.000 OA
ENDROOT
TORSDOF 0
