REMARK  Name = ../refined-set-2016/4pp5/4pp5_pocket.pdb
REMARK  234 active torsions:
REMARK  status: ('A' for Active; 'I' for Inactive)
REMARK    1  A    between atoms: _1  and  _3
REMARK    2  A    between atoms: _3  and  _4
REMARK    3  A    between atoms: _3  and  _6
REMARK    4  A    between atoms: _6  and  _7
REMARK    5  A    between atoms: _7  and  _8
REMARK    6  A    between atoms: _12  and  _13
REMARK    7  A    between atoms: _18  and  _20
REMARK    8  A    between atoms: _20  and  _21
REMARK    9  A    between atoms: _20  and  _23
REMARK   10  A    between atoms: _26  and  _28
REMARK   11  A    between atoms: _28  and  _29
REMARK   12  A    between atoms: _28  and  _31
REMARK   13  A    between atoms: _31  and  _32
REMARK   14  A    between atoms: _35  and  _37
REMARK   15  A    between atoms: _37  and  _38
REMARK   16  A    between atoms: _37  and  _40
REMARK   17  A    between atoms: _40  and  _41
REMARK   18  A    between atoms: _46  and  _48
REMARK   19  A    between atoms: _48  and  _49
REMARK   20  A    between atoms: _48  and  _51
REMARK   21  A    between atoms: _51  and  _52
REMARK   22  A    between atoms: _55  and  _57
REMARK   23  A    between atoms: _57  and  _58
REMARK   24  A    between atoms: _57  and  _60
REMARK   25  A    between atoms: _62  and  _64
REMARK   26  A    between atoms: _64  and  _65
REMARK   27  A    between atoms: _64  and  _67
REMARK   28  A    between atoms: _67  and  _68
REMARK   29  A    between atoms: _68  and  _69
REMARK   30  A    between atoms: _74  and  _76
REMARK   31  A    between atoms: _76  and  _77
REMARK   32  A    between atoms: _80  and  _82
REMARK   33  A    between atoms: _82  and  _83
REMARK   34  A    between atoms: _86  and  _88
REMARK   35  A    between atoms: _88  and  _89
REMARK   36  A    between atoms: _88  and  _91
REMARK   37  A    between atoms: _91  and  _92
REMARK   38  A    between atoms: _95  and  _97
REMARK   39  A    between atoms: _97  and  _98
REMARK   40  A    between atoms: _97  and  _100
REMARK   41  A    between atoms: _100  and  _101
REMARK   42  A    between atoms: _101  and  _102
REMARK   43  A    between atoms: _102  and  _103
REMARK   44  A    between atoms: _103  and  _104
REMARK   45  A    between atoms: _108  and  _110
REMARK   46  A    between atoms: _110  and  _111
REMARK   47  A    between atoms: _110  and  _113
REMARK   48  A    between atoms: _113  and  _114
REMARK   49  A    between atoms: _114  and  _115
REMARK   50  A    between atoms: _120  and  _122
REMARK   51  A    between atoms: _122  and  _123
REMARK   52  A    between atoms: _122  and  _125
REMARK   53  A    between atoms: _125  and  _126
REMARK   54  A    between atoms: _129  and  _131
REMARK   55  A    between atoms: _131  and  _132
REMARK   56  A    between atoms: _131  and  _134
REMARK   57  A    between atoms: _134  and  _135
REMARK   58  A    between atoms: _138  and  _140
REMARK   59  A    between atoms: _140  and  _141
REMARK   60  A    between atoms: _140  and  _143
REMARK   61  A    between atoms: _143  and  _144
REMARK   62  A    between atoms: _154  and  _156
REMARK   63  A    between atoms: _156  and  _157
REMARK   64  A    between atoms: _156  and  _159
REMARK   65  A    between atoms: _159  and  _160
REMARK   66  A    between atoms: _165  and  _167
REMARK   67  A    between atoms: _167  and  _168
REMARK   68  A    between atoms: _167  and  _170
REMARK   69  A    between atoms: _170  and  _171
REMARK   70  A    between atoms: _171  and  _172
REMARK   71  A    between atoms: _175  and  _177
REMARK   72  A    between atoms: _177  and  _178
REMARK   73  A    between atoms: _177  and  _180
REMARK   74  A    between atoms: _180  and  _181
REMARK   75  A    between atoms: _184  and  _186
REMARK   76  A    between atoms: _186  and  _187
REMARK   77  A    between atoms: _186  and  _189
REMARK   78  A    between atoms: _189  and  _190
REMARK   79  A    between atoms: _193  and  _195
REMARK   80  A    between atoms: _195  and  _196
REMARK   81  A    between atoms: _195  and  _198
REMARK   82  A    between atoms: _198  and  _199
REMARK   83  A    between atoms: _202  and  _204
REMARK   84  A    between atoms: _204  and  _205
REMARK   85  A    between atoms: _208  and  _210
REMARK   86  A    between atoms: _210  and  _211
REMARK   87  A    between atoms: _210  and  _213
REMARK   88  A    between atoms: _213  and  _214
REMARK   89  A    between atoms: _216  and  _218
REMARK   90  A    between atoms: _218  and  _219
REMARK   91  A    between atoms: _218  and  _221
REMARK   92  A    between atoms: _221  and  _222
REMARK   93  A    between atoms: _228  and  _230
REMARK   94  A    between atoms: _230  and  _231
REMARK   95  A    between atoms: _230  and  _233
REMARK   96  A    between atoms: _233  and  _234
REMARK   97  A    between atoms: _236  and  _238
REMARK   98  A    between atoms: _238  and  _239
REMARK   99  A    between atoms: _238  and  _241
REMARK  100  A    between atoms: _241  and  _242
REMARK  101  A    between atoms: _247  and  _249
REMARK  102  A    between atoms: _249  and  _250
REMARK  103  A    between atoms: _249  and  _252
REMARK  104  A    between atoms: _252  and  _253
REMARK  105  A    between atoms: _253  and  _254
REMARK  106  A    between atoms: _254  and  _255
REMARK  107  A    between atoms: _264  and  _266
REMARK  108  A    between atoms: _266  and  _267
REMARK  109  A    between atoms: _266  and  _269
REMARK  110  A    between atoms: _269  and  _270
REMARK  111  A    between atoms: _272  and  _274
REMARK  112  A    between atoms: _274  and  _275
REMARK  113  A    between atoms: _274  and  _277
REMARK  114  A    between atoms: _277  and  _278
REMARK  115  A    between atoms: _281  and  _283
REMARK  116  A    between atoms: _283  and  _284
REMARK  117  A    between atoms: _283  and  _286
REMARK  118  A    between atoms: _286  and  _287
REMARK  119  A    between atoms: _290  and  _292
REMARK  120  A    between atoms: _292  and  _293
REMARK  121  A    between atoms: _292  and  _295
REMARK  122  A    between atoms: _295  and  _296
REMARK  123  A    between atoms: _299  and  _301
REMARK  124  A    between atoms: _301  and  _302
REMARK  125  A    between atoms: _305  and  _307
REMARK  126  A    between atoms: _307  and  _308
REMARK  127  A    between atoms: _307  and  _310
REMARK  128  A    between atoms: _310  and  _311
REMARK  129  A    between atoms: _314  and  _316
REMARK  130  A    between atoms: _316  and  _317
REMARK  131  A    between atoms: _319  and  _321
REMARK  132  A    between atoms: _321  and  _322
REMARK  133  A    between atoms: _321  and  _324
REMARK  134  A    between atoms: _324  and  _325
REMARK  135  A    between atoms: _328  and  _330
REMARK  136  A    between atoms: _330  and  _331
REMARK  137  A    between atoms: _330  and  _333
REMARK  138  A    between atoms: _336  and  _338
REMARK  139  A    between atoms: _338  and  _339
REMARK  140  A    between atoms: _342  and  _344
REMARK  141  A    between atoms: _344  and  _345
REMARK  142  A    between atoms: _348  and  _350
REMARK  143  A    between atoms: _350  and  _351
REMARK  144  A    between atoms: _353  and  _355
REMARK  145  A    between atoms: _355  and  _356
REMARK  146  A    between atoms: _355  and  _358
REMARK  147  A    between atoms: _361  and  _363
REMARK  148  A    between atoms: _363  and  _364
REMARK  149  A    between atoms: _366  and  _368
REMARK  150  A    between atoms: _368  and  _369
REMARK  151  A    between atoms: _372  and  _374
REMARK  152  A    between atoms: _374  and  _375
REMARK  153  A    between atoms: _374  and  _377
REMARK  154  A    between atoms: _377  and  _378
REMARK  155  A    between atoms: _381  and  _383
REMARK  156  A    between atoms: _383  and  _384
REMARK  157  A    between atoms: _383  and  _386
REMARK  158  A    between atoms: _386  and  _387
REMARK  159  A    between atoms: _393  and  _395
REMARK  160  A    between atoms: _395  and  _396
REMARK  161  A    between atoms: _395  and  _398
REMARK  162  A    between atoms: _398  and  _399
REMARK  163  A    between atoms: _402  and  _404
REMARK  164  A    between atoms: _404  and  _405
REMARK  165  A    between atoms: _404  and  _407
REMARK  166  A    between atoms: _407  and  _408
REMARK  167  A    between atoms: _408  and  _409
REMARK  168  A    between atoms: _409  and  _410
REMARK  169  A    between atoms: _419  and  _421
REMARK  170  A    between atoms: _421  and  _422
REMARK  171  A    between atoms: _421  and  _424
REMARK  172  A    between atoms: _427  and  _429
REMARK  173  A    between atoms: _429  and  _430
REMARK  174  A    between atoms: _429  and  _432
REMARK  175  A    between atoms: _432  and  _433
REMARK  176  A    between atoms: _436  and  _438
REMARK  177  A    between atoms: _438  and  _439
REMARK  178  A    between atoms: _438  and  _441
REMARK  179  A    between atoms: _441  and  _442
REMARK  180  A    between atoms: _442  and  _443
REMARK  181  A    between atoms: _443  and  _444
REMARK  182  A    between atoms: _453  and  _455
REMARK  183  A    between atoms: _455  and  _456
REMARK  184  A    between atoms: _455  and  _458
REMARK  185  A    between atoms: _458  and  _459
REMARK  186  A    between atoms: _462  and  _464
REMARK  187  A    between atoms: _464  and  _465
REMARK  188  A    between atoms: _467  and  _469
REMARK  189  A    between atoms: _469  and  _470
REMARK  190  A    between atoms: _469  and  _472
REMARK  191  A    between atoms: _472  and  _473
REMARK  192  A    between atoms: _473  and  _474
REMARK  193  A    between atoms: _474  and  _475
REMARK  194  A    between atoms: _475  and  _476
REMARK  195  A    between atoms: _480  and  _482
REMARK  196  A    between atoms: _482  and  _483
REMARK  197  A    between atoms: _482  and  _485
REMARK  198  A    between atoms: _487  and  _489
REMARK  199  A    between atoms: _489  and  _490
REMARK  200  A    between atoms: _489  and  _492
REMARK  201  A    between atoms: _492  and  _493
REMARK  202  A    between atoms: _496  and  _498
REMARK  203  A    between atoms: _498  and  _499
REMARK  204  A    between atoms: _498  and  _501
REMARK  205  A    between atoms: _501  and  _502
REMARK  206  A    between atoms: _502  and  _503
REMARK  207  A    between atoms: _506  and  _508
REMARK  208  A    between atoms: _508  and  _509
REMARK  209  A    between atoms: _508  and  _511
REMARK  210  A    between atoms: _511  and  _512
REMARK  211  A    between atoms: _517  and  _519
REMARK  212  A    between atoms: _519  and  _520
REMARK  213  A    between atoms: _519  and  _522
REMARK  214  A    between atoms: _522  and  _523
REMARK  215  A    between atoms: _526  and  _528
REMARK  216  A    between atoms: _528  and  _529
REMARK  217  A    between atoms: _528  and  _531
REMARK  218  A    between atoms: _531  and  _532
REMARK  219  A    between atoms: _538  and  _540
REMARK  220  A    between atoms: _540  and  _541
REMARK  221  A    between atoms: _540  and  _543
REMARK  222  A    between atoms: _543  and  _544
REMARK  223  A    between atoms: _550  and  _552
REMARK  224  A    between atoms: _552  and  _553
REMARK  225  A    between atoms: _552  and  _555
REMARK  226  A    between atoms: _555  and  _556
REMARK  227  A    between atoms: _559  and  _561
REMARK  228  A    between atoms: _561  and  _562
REMARK  229  A    between atoms: _561  and  _564
REMARK  230  A    between atoms: _564  and  _565
REMARK  231  A    between atoms: _568  and  _570
REMARK  232  A    between atoms: _570  and  _571
REMARK  233  A    between atoms: _570  and  _573
REMARK  234  A    between atoms: _573  and  _574
REMARK                            x       y       z     vdW  Elec       q    Type
REMARK                         _______ _______ _______ _____ _____    ______ ____
ROOT
ATOM      1  CA  GLU A   1      47.277  49.414  27.127  0.00  0.00    +0.134 C 
ENDROOT
BRANCH   1   2
ATOM      2  N   GLU A   1      47.107  49.827  25.739  0.00  0.00    -0.239 NA
ATOM      3  H   GLU A   1      46.373  50.520  25.490  0.00  0.00    +0.142 HD
ENDBRANCH   1   2
BRANCH   1   4
ATOM      4  C   GLU A   1      46.006  49.575  27.955  0.00  0.00    +0.224 C 
ATOM      5  O   GLU A   1      45.431  50.661  28.023  0.00  0.00    -0.287 OA
ENDBRANCH   1   4
BRANCH   1   6
ATOM      6  CB  GLU A   1      48.412  50.209  27.769  0.00  0.00    +0.037 C 
BRANCH   6   7
ATOM      7  CG  GLU A   1      48.882  49.650  29.100  0.00  0.00    +0.116 C 
BRANCH   7   8
ATOM      8  CD  GLU A   1      50.122  50.350  29.609  0.00  0.00    +0.365 C 
ATOM      9  OE2 GLU A   1      50.116  50.811  30.769  0.00  0.00    -0.246 OA
ATOM     10  OE1 GLU A   1      51.108  50.433  28.844  0.00  0.00    -0.246 OA
ENDBRANCH   7   8
ENDBRANCH   6   7
ENDBRANCH   1   6
TORSDOF 5
REMARK  Name = ../refined-set-2016/4pp5/4pp5_pocket.pdb
REMARK  234 active torsions:
REMARK  status: ('A' for Active; 'I' for Inactive)
REMARK    1  A    between atoms: _1  and  _3
REMARK    2  A    between atoms: _3  and  _4
REMARK    3  A    between atoms: _3  and  _6
REMARK    4  A    between atoms: _6  and  _7
REMARK    5  A    between atoms: _7  and  _8
REMARK    6  A    between atoms: _12  and  _13
REMARK    7  A    between atoms: _18  and  _20
REMARK    8  A    between atoms: _20  and  _21
REMARK    9  A    between atoms: _20  and  _23
REMARK   10  A    between atoms: _26  and  _28
REMARK   11  A    between atoms: _28  and  _29
REMARK   12  A    between atoms: _28  and  _31
REMARK   13  A    between atoms: _31  and  _32
REMARK   14  A    between atoms: _35  and  _37
REMARK   15  A    between atoms: _37  and  _38
REMARK   16  A    between atoms: _37  and  _40
REMARK   17  A    between atoms: _40  and  _41
REMARK   18  A    between atoms: _46  and  _48
REMARK   19  A    between atoms: _48  and  _49
REMARK   20  A    between atoms: _48  and  _51
REMARK   21  A    between atoms: _51  and  _52
REMARK   22  A    between atoms: _55  and  _57
REMARK   23  A    between atoms: _57  and  _58
REMARK   24  A    between atoms: _57  and  _60
REMARK   25  A    between atoms: _62  and  _64
REMARK   26  A    between atoms: _64  and  _65
REMARK   27  A    between atoms: _64  and  _67
REMARK   28  A    between atoms: _67  and  _68
REMARK   29  A    between atoms: _68  and  _69
REMARK   30  A    between atoms: _74  and  _76
REMARK   31  A    between atoms: _76  and  _77
REMARK   32  A    between atoms: _80  and  _82
REMARK   33  A    between atoms: _82  and  _83
REMARK   34  A    between atoms: _86  and  _88
REMARK   35  A    between atoms: _88  and  _89
REMARK   36  A    between atoms: _88  and  _91
REMARK   37  A    between atoms: _91  and  _92
REMARK   38  A    between atoms: _95  and  _97
REMARK   39  A    between atoms: _97  and  _98
REMARK   40  A    between atoms: _97  and  _100
REMARK   41  A    between atoms: _100  and  _101
REMARK   42  A    between atoms: _101  and  _102
REMARK   43  A    between atoms: _102  and  _103
REMARK   44  A    between atoms: _103  and  _104
REMARK   45  A    between atoms: _108  and  _110
REMARK   46  A    between atoms: _110  and  _111
REMARK   47  A    between atoms: _110  and  _113
REMARK   48  A    between atoms: _113  and  _114
REMARK   49  A    between atoms: _114  and  _115
REMARK   50  A    between atoms: _120  and  _122
REMARK   51  A    between atoms: _122  and  _123
REMARK   52  A    between atoms: _122  and  _125
REMARK   53  A    between atoms: _125  and  _126
REMARK   54  A    between atoms: _129  and  _131
REMARK   55  A    between atoms: _131  and  _132
REMARK   56  A    between atoms: _131  and  _134
REMARK   57  A    between atoms: _134  and  _135
REMARK   58  A    between atoms: _138  and  _140
REMARK   59  A    between atoms: _140  and  _141
REMARK   60  A    between atoms: _140  and  _143
REMARK   61  A    between atoms: _143  and  _144
REMARK   62  A    between atoms: _154  and  _156
REMARK   63  A    between atoms: _156  and  _157
REMARK   64  A    between atoms: _156  and  _159
REMARK   65  A    between atoms: _159  and  _160
REMARK   66  A    between atoms: _165  and  _167
REMARK   67  A    between atoms: _167  and  _168
REMARK   68  A    between atoms: _167  and  _170
REMARK   69  A    between atoms: _170  and  _171
REMARK   70  A    between atoms: _171  and  _172
REMARK   71  A    between atoms: _175  and  _177
REMARK   72  A    between atoms: _177  and  _178
REMARK   73  A    between atoms: _177  and  _180
REMARK   74  A    between atoms: _180  and  _181
REMARK   75  A    between atoms: _184  and  _186
REMARK   76  A    between atoms: _186  and  _187
REMARK   77  A    between atoms: _186  and  _189
REMARK   78  A    between atoms: _189  and  _190
REMARK   79  A    between atoms: _193  and  _195
REMARK   80  A    between atoms: _195  and  _196
REMARK   81  A    between atoms: _195  and  _198
REMARK   82  A    between atoms: _198  and  _199
REMARK   83  A    between atoms: _202  and  _204
REMARK   84  A    between atoms: _204  and  _205
REMARK   85  A    between atoms: _208  and  _210
REMARK   86  A    between atoms: _210  and  _211
REMARK   87  A    between atoms: _210  and  _213
REMARK   88  A    between atoms: _213  and  _214
REMARK   89  A    between atoms: _216  and  _218
REMARK   90  A    between atoms: _218  and  _219
REMARK   91  A    between atoms: _218  and  _221
REMARK   92  A    between atoms: _221  and  _222
REMARK   93  A    between atoms: _228  and  _230
REMARK   94  A    between atoms: _230  and  _231
REMARK   95  A    between atoms: _230  and  _233
REMARK   96  A    between atoms: _233  and  _234
REMARK   97  A    between atoms: _236  and  _238
REMARK   98  A    between atoms: _238  and  _239
REMARK   99  A    between atoms: _238  and  _241
REMARK  100  A    between atoms: _241  and  _242
REMARK  101  A    between atoms: _247  and  _249
REMARK  102  A    between atoms: _249  and  _250
REMARK  103  A    between atoms: _249  and  _252
REMARK  104  A    between atoms: _252  and  _253
REMARK  105  A    between atoms: _253  and  _254
REMARK  106  A    between atoms: _254  and  _255
REMARK  107  A    between atoms: _264  and  _266
REMARK  108  A    between atoms: _266  and  _267
REMARK  109  A    between atoms: _266  and  _269
REMARK  110  A    between atoms: _269  and  _270
REMARK  111  A    between atoms: _272  and  _274
REMARK  112  A    between atoms: _274  and  _275
REMARK  113  A    between atoms: _274  and  _277
REMARK  114  A    between atoms: _277  and  _278
REMARK  115  A    between atoms: _281  and  _283
REMARK  116  A    between atoms: _283  and  _284
REMARK  117  A    between atoms: _283  and  _286
REMARK  118  A    between atoms: _286  and  _287
REMARK  119  A    between atoms: _290  and  _292
REMARK  120  A    between atoms: _292  and  _293
REMARK  121  A    between atoms: _292  and  _295
REMARK  122  A    between atoms: _295  and  _296
REMARK  123  A    between atoms: _299  and  _301
REMARK  124  A    between atoms: _301  and  _302
REMARK  125  A    between atoms: _305  and  _307
REMARK  126  A    between atoms: _307  and  _308
REMARK  127  A    between atoms: _307  and  _310
REMARK  128  A    between atoms: _310  and  _311
REMARK  129  A    between atoms: _314  and  _316
REMARK  130  A    between atoms: _316  and  _317
REMARK  131  A    between atoms: _319  and  _321
REMARK  132  A    between atoms: _321  and  _322
REMARK  133  A    between atoms: _321  and  _324
REMARK  134  A    between atoms: _324  and  _325
REMARK  135  A    between atoms: _328  and  _330
REMARK  136  A    between atoms: _330  and  _331
REMARK  137  A    between atoms: _330  and  _333
REMARK  138  A    between atoms: _336  and  _338
REMARK  139  A    between atoms: _338  and  _339
REMARK  140  A    between atoms: _342  and  _344
REMARK  141  A    between atoms: _344  and  _345
REMARK  142  A    between atoms: _348  and  _350
REMARK  143  A    between atoms: _350  and  _351
REMARK  144  A    between atoms: _353  and  _355
REMARK  145  A    between atoms: _355  and  _356
REMARK  146  A    between atoms: _355  and  _358
REMARK  147  A    between atoms: _361  and  _363
REMARK  148  A    between atoms: _363  and  _364
REMARK  149  A    between atoms: _366  and  _368
REMARK  150  A    between atoms: _368  and  _369
REMARK  151  A    between atoms: _372  and  _374
REMARK  152  A    between atoms: _374  and  _375
REMARK  153  A    between atoms: _374  and  _377
REMARK  154  A    between atoms: _377  and  _378
REMARK  155  A    between atoms: _381  and  _383
REMARK  156  A    between atoms: _383  and  _384
REMARK  157  A    between atoms: _383  and  _386
REMARK  158  A    between atoms: _386  and  _387
REMARK  159  A    between atoms: _393  and  _395
REMARK  160  A    between atoms: _395  and  _396
REMARK  161  A    between atoms: _395  and  _398
REMARK  162  A    between atoms: _398  and  _399
REMARK  163  A    between atoms: _402  and  _404
REMARK  164  A    between atoms: _404  and  _405
REMARK  165  A    between atoms: _404  and  _407
REMARK  166  A    between atoms: _407  and  _408
REMARK  167  A    between atoms: _408  and  _409
REMARK  168  A    between atoms: _409  and  _410
REMARK  169  A    between atoms: _419  and  _421
REMARK  170  A    between atoms: _421  and  _422
REMARK  171  A    between atoms: _421  and  _424
REMARK  172  A    between atoms: _427  and  _429
REMARK  173  A    between atoms: _429  and  _430
REMARK  174  A    between atoms: _429  and  _432
REMARK  175  A    between atoms: _432  and  _433
REMARK  176  A    between atoms: _436  and  _438
REMARK  177  A    between atoms: _438  and  _439
REMARK  178  A    between atoms: _438  and  _441
REMARK  179  A    between atoms: _441  and  _442
REMARK  180  A    between atoms: _442  and  _443
REMARK  181  A    between atoms: _443  and  _444
REMARK  182  A    between atoms: _453  and  _455
REMARK  183  A    between atoms: _455  and  _456
REMARK  184  A    between atoms: _455  and  _458
REMARK  185  A    between atoms: _458  and  _459
REMARK  186  A    between atoms: _462  and  _464
REMARK  187  A    between atoms: _464  and  _465
REMARK  188  A    between atoms: _467  and  _469
REMARK  189  A    between atoms: _469  and  _470
REMARK  190  A    between atoms: _469  and  _472
REMARK  191  A    between atoms: _472  and  _473
REMARK  192  A    between atoms: _473  and  _474
REMARK  193  A    between atoms: _474  and  _475
REMARK  194  A    between atoms: _475  and  _476
REMARK  195  A    between atoms: _480  and  _482
REMARK  196  A    between atoms: _482  and  _483
REMARK  197  A    between atoms: _482  and  _485
REMARK  198  A    between atoms: _487  and  _489
REMARK  199  A    between atoms: _489  and  _490
REMARK  200  A    between atoms: _489  and  _492
REMARK  201  A    between atoms: _492  and  _493
REMARK  202  A    between atoms: _496  and  _498
REMARK  203  A    between atoms: _498  and  _499
REMARK  204  A    between atoms: _498  and  _501
REMARK  205  A    between atoms: _501  and  _502
REMARK  206  A    between atoms: _502  and  _503
REMARK  207  A    between atoms: _506  and  _508
REMARK  208  A    between atoms: _508  and  _509
REMARK  209  A    between atoms: _508  and  _511
REMARK  210  A    between atoms: _511  and  _512
REMARK  211  A    between atoms: _517  and  _519
REMARK  212  A    between atoms: _519  and  _520
REMARK  213  A    between atoms: _519  and  _522
REMARK  214  A    between atoms: _522  and  _523
REMARK  215  A    between atoms: _526  and  _528
REMARK  216  A    between atoms: _528  and  _529
REMARK  217  A    between atoms: _528  and  _531
REMARK  218  A    between atoms: _531  and  _532
REMARK  219  A    between atoms: _538  and  _540
REMARK  220  A    between atoms: _540  and  _541
REMARK  221  A    between atoms: _540  and  _543
REMARK  222  A    between atoms: _543  and  _544
REMARK  223  A    between atoms: _550  and  _552
REMARK  224  A    between atoms: _552  and  _553
REMARK  225  A    between atoms: _552  and  _555
REMARK  226  A    between atoms: _555  and  _556
REMARK  227  A    between atoms: _559  and  _561
REMARK  228  A    between atoms: _561  and  _562
REMARK  229  A    between atoms: _561  and  _564
REMARK  230  A    between atoms: _564  and  _565
REMARK  231  A    between atoms: _568  and  _570
REMARK  232  A    between atoms: _570  and  _571
REMARK  233  A    between atoms: _570  and  _573
REMARK  234  A    between atoms: _573  and  _574
REMARK                            x       y       z     vdW  Elec       q    Type
REMARK                         _______ _______ _______ _____ _____    ______ ____
ROOT
ATOM      1  CA  GLN A   7      60.677  39.345  27.770  0.00  0.00    +0.149 C 
ENDROOT
BRANCH   1   2
ATOM      2  C   GLN A   7      59.539  40.347  27.608  0.00  0.00    +0.241 C 
ATOM      3  N   ALA A   8      59.364  41.200  28.614  0.00  0.00    -0.297 N 
ATOM      4  H   ALA A   8      59.986  41.138  29.445  0.00  0.00    +0.150 HD
ATOM      5  O   GLN A   7      58.844  40.359  26.591  0.00  0.00    -0.273 OA
BRANCH   3   6
ATOM      6  CA  ALA A   8      58.323  42.218  28.579  0.00  0.00    +0.149 C 
ATOM      7  CB  ALA A   8      58.228  42.918  29.936  0.00  0.00    +0.031 C 
BRANCH   6   8
ATOM      8  C   ALA A   8      58.636  43.232  27.487  0.00  0.00    +0.241 C 
ATOM      9  N   ALA A   9      59.915  43.584  27.362  0.00  0.00    -0.297 N 
ATOM     10  H   ALA A   9      60.621  43.161  27.998  0.00  0.00    +0.150 HD
ATOM     11  O   ALA A   8      57.738  43.689  26.776  0.00  0.00    -0.273 OA
BRANCH   9  12
ATOM     12  CA  ALA A   9      60.351  44.547  26.356  0.00  0.00    +0.149 C 
ATOM     13  CB  ALA A   9      61.845  44.849  26.524  0.00  0.00    +0.031 C 
BRANCH  12  14
ATOM     14  C   ALA A   9      60.078  44.054  24.937  0.00  0.00    +0.241 C 
ATOM     15  N   ASP A  10      60.385  42.787  24.669  0.00  0.00    -0.297 N 
ATOM     16  H   ASP A  10      60.794  42.191  25.417  0.00  0.00    +0.150 HD
ATOM     17  O   ALA A   9      59.612  44.819  24.097  0.00  0.00    -0.273 OA
BRANCH  15  18
ATOM     18  CA  ASP A  10      60.157  42.218  23.340  0.00  0.00    +0.160 C 
BRANCH  18  19
ATOM     19  C   ASP A  10      58.658  42.280  23.049  0.00  0.00    +0.241 C 
ATOM     20  N   LYS A  11      57.871  41.845  24.022  0.00  0.00    -0.297 N 
ATOM     21  H   LYS A  11      58.304  41.486  24.897  0.00  0.00    +0.150 HD
ATOM     22  O   ASP A  10      58.230  42.707  21.977  0.00  0.00    -0.273 OA
BRANCH  20  23
ATOM     23  CA  LYS A  11      56.418  41.854  23.906  0.00  0.00    +0.149 C 
BRANCH  23  24
ATOM     24  C   LYS A  11      55.933  43.256  23.543  0.00  0.00    +0.241 C 
ATOM     25  N   GLN A  12      56.396  44.247  24.295  0.00  0.00    -0.297 N 
ATOM     26  H   GLN A  12      57.073  44.041  25.057  0.00  0.00    +0.150 HD
ATOM     27  O   LYS A  11      55.168  43.439  22.596  0.00  0.00    -0.273 OA
BRANCH  25  28
ATOM     28  CA  GLN A  12      55.967  45.615  24.065  0.00  0.00    +0.149 C 
BRANCH  28  29
ATOM     29  C   GLN A  12      56.471  46.255  22.780  0.00  0.00    +0.241 C 
ATOM     30  O   GLN A  12      55.926  47.263  22.348  0.00  0.00    -0.273 OA
ATOM     31  N   LEU A  13      57.505  45.688  22.165  0.00  0.00    -0.298 N 
ATOM     32  H   LEU A  13      57.954  44.842  22.570  0.00  0.00    +0.150 HD
BRANCH  31  33
ATOM     33  CA  LEU A  13      58.005  46.259  20.921  0.00  0.00    +0.137 C 
BRANCH  33  34
ATOM     34  C   LEU A  13      56.939  46.114  19.829  0.00  0.00    +0.227 C 
ATOM     35  O   LEU A  13      56.766  46.998  18.992  0.00  0.00    -0.286 OA
ENDBRANCH  33  34
BRANCH  33  36
ATOM     36  CB  LEU A  13      59.319  45.582  20.504  0.00  0.00    +0.028 C 
BRANCH  36  37
ATOM     37  CG  LEU A  13      60.565  46.144  21.210  0.00  0.00    +0.002 C 
ATOM     38  CD2 LEU A  13      61.802  45.330  20.858  0.00  0.00    +0.000 C 
ATOM     39  CD1 LEU A  13      60.765  47.589  20.793  0.00  0.00    +0.000 C 
ENDBRANCH  36  37
ENDBRANCH  33  36
ENDBRANCH  31  33
ENDBRANCH  28  29
BRANCH  28  40
ATOM     40  CB  GLN A  12      56.326  46.493  25.269  0.00  0.00    +0.039 C 
BRANCH  40  41
ATOM     41  CG  GLN A  12      55.507  46.189  26.512  0.00  0.00    +0.087 C 
BRANCH  41  42
ATOM     42  CD  GLN A  12      54.014  46.145  26.236  0.00  0.00    +0.219 C 
ATOM     43  NE2 GLN A  12      53.355  47.297  26.342  0.00  0.00    -0.329 N 
ATOM     44 HE21 GLN A  12      53.863  48.164  26.611  0.00  0.00    +0.145 HD
ATOM     45 HE22 GLN A  12      52.332  47.330  26.156  0.00  0.00    +0.145 HD
ATOM     46  OE1 GLN A  12      53.460  45.089  25.921  0.00  0.00    -0.275 OA
ENDBRANCH  41  42
ENDBRANCH  40  41
ENDBRANCH  28  40
ENDBRANCH  25  28
ENDBRANCH  23  24
BRANCH  23  47
ATOM     47  CB  LYS A  11      55.799  41.433  25.240  0.00  0.00    +0.029 C 
BRANCH  47  48
ATOM     48  CG  LYS A  11      54.274  41.513  25.305  0.00  0.00    +0.000 C 
BRANCH  48  49
ATOM     49  CD  LYS A  11      53.788  41.326  26.739  0.00  0.00    -0.024 C 
BRANCH  49  50
ATOM     50  CE  LYS A  11      52.267  41.249  26.831  0.00  0.00    -0.086 C 
BRANCH  50  51
ATOM     51  NZ  LYS A  11      51.611  42.478  26.315  0.00  0.00    +0.380 N 
ATOM     52  HZ1 LYS A  11      51.928  43.298  26.871  0.00  0.00    -0.089 HD
ATOM     53  HZ2 LYS A  11      50.579  42.379  26.398  0.00  0.00    -0.089 HD
ATOM     54  HZ3 LYS A  11      51.869  42.614  25.317  0.00  0.00    -0.089 HD
ENDBRANCH  50  51
ENDBRANCH  49  50
ENDBRANCH  48  49
ENDBRANCH  47  48
ENDBRANCH  23  47
ENDBRANCH  20  23
ENDBRANCH  18  19
BRANCH  18  55
ATOM     55  CB  ASP A  10      60.628  40.764  23.292  0.00  0.00    +0.143 C 
BRANCH  55  56
ATOM     56  CG  ASP A  10      60.493  40.149  21.902  0.00  0.00    +0.367 C 
ATOM     57  OD2 ASP A  10      59.594  39.306  21.708  0.00  0.00    -0.246 OA
ATOM     58  OD1 ASP A  10      61.278  40.511  20.998  0.00  0.00    -0.246 OA
ENDBRANCH  55  56
ENDBRANCH  18  55
ENDBRANCH  15  18
ENDBRANCH  12  14
ENDBRANCH   9  12
ENDBRANCH   6   8
ENDBRANCH   3   6
ENDBRANCH   1   2
BRANCH   1  60
ATOM     59  C   CYS A   6      62.533  40.897  27.794  0.00  0.00    +0.242 C 
ATOM     60  N   GLN A   7      61.813  39.981  28.433  0.00  0.00    -0.297 N 
ATOM     61  H   GLN A   7      62.059  39.716  29.408  0.00  0.00    +0.150 HD
ATOM     62  O   CYS A   6      62.291  41.240  26.637  0.00  0.00    -0.273 OA
BRANCH  59  63
ATOM     63  CA  CYS A   6      63.694  41.525  28.560  0.00  0.00    +0.160 C 
BRANCH  63  65
ATOM     64  C   ILE A   5      62.464  42.497  30.402  0.00  0.00    +0.241 C 
ATOM     65  N   CYS A   6      63.404  41.655  29.981  0.00  0.00    -0.296 N 
ATOM     66  H   CYS A   6      63.935  41.086  30.671  0.00  0.00    +0.150 HD
ATOM     67  O   ILE A   5      61.808  43.190  29.628  0.00  0.00    -0.273 OA
BRANCH  64  68
ATOM     68  CA  ILE A   5      62.216  42.566  31.909  0.00  0.00    +0.149 C 
BRANCH  68  70
ATOM     69  C   ASN A   4      61.293  40.336  32.158  0.00  0.00    +0.241 C 
ATOM     70  N   ILE A   5      62.219  41.229  32.487  0.00  0.00    -0.297 N 
ATOM     71  H   ILE A   5      62.960  40.969  33.169  0.00  0.00    +0.150 HD
ATOM     72  O   ASN A   4      60.380  40.584  31.372  0.00  0.00    -0.273 OA
BRANCH  69  73
ATOM     73  CA  ASN A   4      61.408  38.966  32.818  0.00  0.00    +0.158 C 
BRANCH  73  75
ATOM     74  C   THR A   3      63.525  38.306  31.818  0.00  0.00    +0.243 C 
ATOM     75  N   ASN A   4      62.803  38.536  32.914  0.00  0.00    -0.297 N 
ATOM     76  H   ASN A   4      63.237  38.408  33.850  0.00  0.00    +0.150 HD
ATOM     77  O   THR A   3      63.075  38.447  30.686  0.00  0.00    -0.273 OA
BRANCH  74  78
ATOM     78  CA  THR A   3      64.975  37.867  32.023  0.00  0.00    +0.176 C 
BRANCH  78  80
ATOM     79  C   VAL A   2      65.671  40.004  32.937  0.00  0.00    +0.241 C 
ATOM     80  N   THR A   3      65.586  38.684  33.067  0.00  0.00    -0.295 N 
ATOM     81  H   THR A   3      65.960  38.227  33.923  0.00  0.00    +0.150 HD
ATOM     82  O   VAL A   2      65.264  40.604  31.943  0.00  0.00    -0.273 OA
BRANCH  79  83
ATOM     83  CA  VAL A   2      66.307  40.764  34.095  0.00  0.00    +0.148 C 
BRANCH  83  85
ATOM     84  C   PRO A   1      64.476  40.448  35.654  0.00  0.00    +0.239 C 
ATOM     85  N   VAL A   2      65.764  40.294  35.360  0.00  0.00    -0.297 N 
ATOM     86  H   VAL A   2      66.393  39.830  36.046  0.00  0.00    +0.150 HD
ATOM     87  O   PRO A   1      63.674  40.981  34.890  0.00  0.00    -0.274 OA
BRANCH  84  92
ATOM     88  N   PRO A   1      64.759  38.728  37.436  0.00  0.00    -0.210 NA
ATOM     89  CD  PRO A   1      65.466  38.983  38.703  0.00  0.00    +0.089 C 
ATOM     90  CG  PRO A   1      65.587  40.486  38.691  0.00  0.00    +0.021 C 
ATOM     91  CB  PRO A   1      64.254  40.904  38.149  0.00  0.00    +0.028 C 
ATOM     92  CA  PRO A   1      64.018  39.915  37.006  0.00  0.00    +0.149 C 
ENDBRANCH  84  92
ENDBRANCH  83  85
BRANCH  83  93
ATOM     93  CB  VAL A   2      67.835  40.587  34.046  0.00  0.00    +0.027 C 
ATOM     94  CG2 VAL A   2      68.492  41.526  35.048  0.00  0.00    +0.002 C 
ATOM     95  CG1 VAL A   2      68.347  40.873  32.651  0.00  0.00    +0.002 C 
ENDBRANCH  83  93
ENDBRANCH  79  83
ENDBRANCH  78  80
BRANCH  78  96
ATOM     96  CB  THR A   3      65.002  36.365  32.386  0.00  0.00    +0.137 C 
ATOM     97  CG2 THR A   3      64.266  35.540  31.326  0.00  0.00    +0.034 C 
BRANCH  96  98
ATOM     98  OG1 THR A   3      66.361  35.921  32.467  0.00  0.00    -0.382 OA
ATOM     99  HG1 THR A   3      66.835  36.439  33.164  0.00  0.00    +0.210 HD
ENDBRANCH  96  98
ENDBRANCH  78  96
ENDBRANCH  74  78
ENDBRANCH  73  75
BRANCH  73 100
ATOM    100  CB  ASN A   4      60.757  39.009  34.203  0.00  0.00    +0.114 C 
BRANCH 100 101
ATOM    101  CG  ASN A   4      60.623  37.633  34.827  0.00  0.00    +0.222 C 
ATOM    102  ND2 ASN A   4      60.800  37.554  36.140  0.00  0.00    -0.329 N 
ATOM    103 HD21 ASN A   4      61.033  38.408  36.686  0.00  0.00    +0.145 HD
ATOM    104 HD22 ASN A   4      60.706  36.638  36.623  0.00  0.00    +0.145 HD
ATOM    105  OD1 ASN A   4      60.348  36.658  34.138  0.00  0.00    -0.275 OA
ENDBRANCH 100 101
ENDBRANCH  73 100
ENDBRANCH  69  73
ENDBRANCH  68  70
BRANCH  68 106
ATOM    106  CB  ILE A   5      63.288  43.464  32.581  0.00  0.00    +0.027 C 
ATOM    107  CG2 ILE A   5      63.465  44.765  31.788  0.00  0.00    +0.002 C 
BRANCH 106 108
ATOM    108  CG1 ILE A   5      62.862  43.770  34.024  0.00  0.00    +0.002 C 
ATOM    109  CD1 ILE A   5      63.965  44.362  34.899  0.00  0.00    +0.000 C 
ENDBRANCH 106 108
ENDBRANCH  68 106
ENDBRANCH  64  68
ENDBRANCH  63  65
BRANCH  63 110
ATOM    110  CB  CYS A   6      64.958  40.698  28.344  0.00  0.00    +0.098 C 
ATOM    111  SG  CYS A   6      66.464  41.546  28.857  0.00  0.00    -0.080 S 
ENDBRANCH  63 110
ENDBRANCH  59  63
ENDBRANCH   1  60
BRANCH   1 112
ATOM    112  CB  GLN A   7      60.219  38.130  28.571  0.00  0.00    +0.039 C 
BRANCH 112 113
ATOM    113  CG  GLN A   7      61.322  37.093  28.720  0.00  0.00    +0.087 C 
BRANCH 113 114
ATOM    114  CD  GLN A   7      60.871  35.844  29.436  0.00  0.00    +0.219 C 
ATOM    115  OE1 GLN A   7      60.323  35.910  30.535  0.00  0.00    -0.275 OA
ATOM    116  NE2 GLN A   7      61.109  34.689  28.820  0.00  0.00    -0.329 N 
ATOM    117 HE21 GLN A   7      60.829  33.793  29.268  0.00  0.00    +0.145 HD
ATOM    118 HE22 GLN A   7      61.575  34.682  27.891  0.00  0.00    +0.145 HD
ENDBRANCH 113 114
ENDBRANCH 112 113
ENDBRANCH   1 112
TORSDOF 48
REMARK  Name = ../refined-set-2016/4pp5/4pp5_pocket.pdb
REMARK  234 active torsions:
REMARK  status: ('A' for Active; 'I' for Inactive)
REMARK    1  A    between atoms: _1  and  _3
REMARK    2  A    between atoms: _3  and  _4
REMARK    3  A    between atoms: _3  and  _6
REMARK    4  A    between atoms: _6  and  _7
REMARK    5  A    between atoms: _7  and  _8
REMARK    6  A    between atoms: _12  and  _13
REMARK    7  A    between atoms: _18  and  _20
REMARK    8  A    between atoms: _20  and  _21
REMARK    9  A    between atoms: _20  and  _23
REMARK   10  A    between atoms: _26  and  _28
REMARK   11  A    between atoms: _28  and  _29
REMARK   12  A    between atoms: _28  and  _31
REMARK   13  A    between atoms: _31  and  _32
REMARK   14  A    between atoms: _35  and  _37
REMARK   15  A    between atoms: _37  and  _38
REMARK   16  A    between atoms: _37  and  _40
REMARK   17  A    between atoms: _40  and  _41
REMARK   18  A    between atoms: _46  and  _48
REMARK   19  A    between atoms: _48  and  _49
REMARK   20  A    between atoms: _48  and  _51
REMARK   21  A    between atoms: _51  and  _52
REMARK   22  A    between atoms: _55  and  _57
REMARK   23  A    between atoms: _57  and  _58
REMARK   24  A    between atoms: _57  and  _60
REMARK   25  A    between atoms: _62  and  _64
REMARK   26  A    between atoms: _64  and  _65
REMARK   27  A    between atoms: _64  and  _67
REMARK   28  A    between atoms: _67  and  _68
REMARK   29  A    between atoms: _68  and  _69
REMARK   30  A    between atoms: _74  and  _76
REMARK   31  A    between atoms: _76  and  _77
REMARK   32  A    between atoms: _80  and  _82
REMARK   33  A    between atoms: _82  and  _83
REMARK   34  A    between atoms: _86  and  _88
REMARK   35  A    between atoms: _88  and  _89
REMARK   36  A    between atoms: _88  and  _91
REMARK   37  A    between atoms: _91  and  _92
REMARK   38  A    between atoms: _95  and  _97
REMARK   39  A    between atoms: _97  and  _98
REMARK   40  A    between atoms: _97  and  _100
REMARK   41  A    between atoms: _100  and  _101
REMARK   42  A    between atoms: _101  and  _102
REMARK   43  A    between atoms: _102  and  _103
REMARK   44  A    between atoms: _103  and  _104
REMARK   45  A    between atoms: _108  and  _110
REMARK   46  A    between atoms: _110  and  _111
REMARK   47  A    between atoms: _110  and  _113
REMARK   48  A    between atoms: _113  and  _114
REMARK   49  A    between atoms: _114  and  _115
REMARK   50  A    between atoms: _120  and  _122
REMARK   51  A    between atoms: _122  and  _123
REMARK   52  A    between atoms: _122  and  _125
REMARK   53  A    between atoms: _125  and  _126
REMARK   54  A    between atoms: _129  and  _131
REMARK   55  A    between atoms: _131  and  _132
REMARK   56  A    between atoms: _131  and  _134
REMARK   57  A    between atoms: _134  and  _135
REMARK   58  A    between atoms: _138  and  _140
REMARK   59  A    between atoms: _140  and  _141
REMARK   60  A    between atoms: _140  and  _143
REMARK   61  A    between atoms: _143  and  _144
REMARK   62  A    between atoms: _154  and  _156
REMARK   63  A    between atoms: _156  and  _157
REMARK   64  A    between atoms: _156  and  _159
REMARK   65  A    between atoms: _159  and  _160
REMARK   66  A    between atoms: _165  and  _167
REMARK   67  A    between atoms: _167  and  _168
REMARK   68  A    between atoms: _167  and  _170
REMARK   69  A    between atoms: _170  and  _171
REMARK   70  A    between atoms: _171  and  _172
REMARK   71  A    between atoms: _175  and  _177
REMARK   72  A    between atoms: _177  and  _178
REMARK   73  A    between atoms: _177  and  _180
REMARK   74  A    between atoms: _180  and  _181
REMARK   75  A    between atoms: _184  and  _186
REMARK   76  A    between atoms: _186  and  _187
REMARK   77  A    between atoms: _186  and  _189
REMARK   78  A    between atoms: _189  and  _190
REMARK   79  A    between atoms: _193  and  _195
REMARK   80  A    between atoms: _195  and  _196
REMARK   81  A    between atoms: _195  and  _198
REMARK   82  A    between atoms: _198  and  _199
REMARK   83  A    between atoms: _202  and  _204
REMARK   84  A    between atoms: _204  and  _205
REMARK   85  A    between atoms: _208  and  _210
REMARK   86  A    between atoms: _210  and  _211
REMARK   87  A    between atoms: _210  and  _213
REMARK   88  A    between atoms: _213  and  _214
REMARK   89  A    between atoms: _216  and  _218
REMARK   90  A    between atoms: _218  and  _219
REMARK   91  A    between atoms: _218  and  _221
REMARK   92  A    between atoms: _221  and  _222
REMARK   93  A    between atoms: _228  and  _230
REMARK   94  A    between atoms: _230  and  _231
REMARK   95  A    between atoms: _230  and  _233
REMARK   96  A    between atoms: _233  and  _234
REMARK   97  A    between atoms: _236  and  _238
REMARK   98  A    between atoms: _238  and  _239
REMARK   99  A    between atoms: _238  and  _241
REMARK  100  A    between atoms: _241  and  _242
REMARK  101  A    between atoms: _247  and  _249
REMARK  102  A    between atoms: _249  and  _250
REMARK  103  A    between atoms: _249  and  _252
REMARK  104  A    between atoms: _252  and  _253
REMARK  105  A    between atoms: _253  and  _254
REMARK  106  A    between atoms: _254  and  _255
REMARK  107  A    between atoms: _264  and  _266
REMARK  108  A    between atoms: _266  and  _267
REMARK  109  A    between atoms: _266  and  _269
REMARK  110  A    between atoms: _269  and  _270
REMARK  111  A    between atoms: _272  and  _274
REMARK  112  A    between atoms: _274  and  _275
REMARK  113  A    between atoms: _274  and  _277
REMARK  114  A    between atoms: _277  and  _278
REMARK  115  A    between atoms: _281  and  _283
REMARK  116  A    between atoms: _283  and  _284
REMARK  117  A    between atoms: _283  and  _286
REMARK  118  A    between atoms: _286  and  _287
REMARK  119  A    between atoms: _290  and  _292
REMARK  120  A    between atoms: _292  and  _293
REMARK  121  A    between atoms: _292  and  _295
REMARK  122  A    between atoms: _295  and  _296
REMARK  123  A    between atoms: _299  and  _301
REMARK  124  A    between atoms: _301  and  _302
REMARK  125  A    between atoms: _305  and  _307
REMARK  126  A    between atoms: _307  and  _308
REMARK  127  A    between atoms: _307  and  _310
REMARK  128  A    between atoms: _310  and  _311
REMARK  129  A    between atoms: _314  and  _316
REMARK  130  A    between atoms: _316  and  _317
REMARK  131  A    between atoms: _319  and  _321
REMARK  132  A    between atoms: _321  and  _322
REMARK  133  A    between atoms: _321  and  _324
REMARK  134  A    between atoms: _324  and  _325
REMARK  135  A    between atoms: _328  and  _330
REMARK  136  A    between atoms: _330  and  _331
REMARK  137  A    between atoms: _330  and  _333
REMARK  138  A    between atoms: _336  and  _338
REMARK  139  A    between atoms: _338  and  _339
REMARK  140  A    between atoms: _342  and  _344
REMARK  141  A    between atoms: _344  and  _345
REMARK  142  A    between atoms: _348  and  _350
REMARK  143  A    between atoms: _350  and  _351
REMARK  144  A    between atoms: _353  and  _355
REMARK  145  A    between atoms: _355  and  _356
REMARK  146  A    between atoms: _355  and  _358
REMARK  147  A    between atoms: _361  and  _363
REMARK  148  A    between atoms: _363  and  _364
REMARK  149  A    between atoms: _366  and  _368
REMARK  150  A    between atoms: _368  and  _369
REMARK  151  A    between atoms: _372  and  _374
REMARK  152  A    between atoms: _374  and  _375
REMARK  153  A    between atoms: _374  and  _377
REMARK  154  A    between atoms: _377  and  _378
REMARK  155  A    between atoms: _381  and  _383
REMARK  156  A    between atoms: _383  and  _384
REMARK  157  A    between atoms: _383  and  _386
REMARK  158  A    between atoms: _386  and  _387
REMARK  159  A    between atoms: _393  and  _395
REMARK  160  A    between atoms: _395  and  _396
REMARK  161  A    between atoms: _395  and  _398
REMARK  162  A    between atoms: _398  and  _399
REMARK  163  A    between atoms: _402  and  _404
REMARK  164  A    between atoms: _404  and  _405
REMARK  165  A    between atoms: _404  and  _407
REMARK  166  A    between atoms: _407  and  _408
REMARK  167  A    between atoms: _408  and  _409
REMARK  168  A    between atoms: _409  and  _410
REMARK  169  A    between atoms: _419  and  _421
REMARK  170  A    between atoms: _421  and  _422
REMARK  171  A    between atoms: _421  and  _424
REMARK  172  A    between atoms: _427  and  _429
REMARK  173  A    between atoms: _429  and  _430
REMARK  174  A    between atoms: _429  and  _432
REMARK  175  A    between atoms: _432  and  _433
REMARK  176  A    between atoms: _436  and  _438
REMARK  177  A    between atoms: _438  and  _439
REMARK  178  A    between atoms: _438  and  _441
REMARK  179  A    between atoms: _441  and  _442
REMARK  180  A    between atoms: _442  and  _443
REMARK  181  A    between atoms: _443  and  _444
REMARK  182  A    between atoms: _453  and  _455
REMARK  183  A    between atoms: _455  and  _456
REMARK  184  A    between atoms: _455  and  _458
REMARK  185  A    between atoms: _458  and  _459
REMARK  186  A    between atoms: _462  and  _464
REMARK  187  A    between atoms: _464  and  _465
REMARK  188  A    between atoms: _467  and  _469
REMARK  189  A    between atoms: _469  and  _470
REMARK  190  A    between atoms: _469  and  _472
REMARK  191  A    between atoms: _472  and  _473
REMARK  192  A    between atoms: _473  and  _474
REMARK  193  A    between atoms: _474  and  _475
REMARK  194  A    between atoms: _475  and  _476
REMARK  195  A    between atoms: _480  and  _482
REMARK  196  A    between atoms: _482  and  _483
REMARK  197  A    between atoms: _482  and  _485
REMARK  198  A    between atoms: _487  and  _489
REMARK  199  A    between atoms: _489  and  _490
REMARK  200  A    between atoms: _489  and  _492
REMARK  201  A    between atoms: _492  and  _493
REMARK  202  A    between atoms: _496  and  _498
REMARK  203  A    between atoms: _498  and  _499
REMARK  204  A    between atoms: _498  and  _501
REMARK  205  A    between atoms: _501  and  _502
REMARK  206  A    between atoms: _502  and  _503
REMARK  207  A    between atoms: _506  and  _508
REMARK  208  A    between atoms: _508  and  _509
REMARK  209  A    between atoms: _508  and  _511
REMARK  210  A    between atoms: _511  and  _512
REMARK  211  A    between atoms: _517  and  _519
REMARK  212  A    between atoms: _519  and  _520
REMARK  213  A    between atoms: _519  and  _522
REMARK  214  A    between atoms: _522  and  _523
REMARK  215  A    between atoms: _526  and  _528
REMARK  216  A    between atoms: _528  and  _529
REMARK  217  A    between atoms: _528  and  _531
REMARK  218  A    between atoms: _531  and  _532
REMARK  219  A    between atoms: _538  and  _540
REMARK  220  A    between atoms: _540  and  _541
REMARK  221  A    between atoms: _540  and  _543
REMARK  222  A    between atoms: _543  and  _544
REMARK  223  A    between atoms: _550  and  _552
REMARK  224  A    between atoms: _552  and  _553
REMARK  225  A    between atoms: _552  and  _555
REMARK  226  A    between atoms: _555  and  _556
REMARK  227  A    between atoms: _559  and  _561
REMARK  228  A    between atoms: _561  and  _562
REMARK  229  A    between atoms: _561  and  _564
REMARK  230  A    between atoms: _564  and  _565
REMARK  231  A    between atoms: _568  and  _570
REMARK  232  A    between atoms: _570  and  _571
REMARK  233  A    between atoms: _570  and  _573
REMARK  234  A    between atoms: _573  and  _574
REMARK                            x       y       z     vdW  Elec       q    Type
REMARK                         _______ _______ _______ _____ _____    ______ ____
ROOT
ATOM      1  CA  THR A   1      52.653  46.928  20.744  0.00  0.00    +0.160 C 
ENDROOT
BRANCH   1   2
ATOM      2  N   THR A   1      53.689  45.982  20.356  0.00  0.00    -0.237 NA
ATOM      3  H   THR A   1      54.160  45.421  21.095  0.00  0.00    +0.142 HD
ENDBRANCH   1   2
BRANCH   1   4
ATOM      4  CB  THR A   1      52.360  46.812  22.254  0.00  0.00    +0.134 C 
ATOM      5  CG2 THR A   1      51.314  47.826  22.680  0.00  0.00    +0.034 C 
BRANCH   4   6
ATOM      6  OG1 THR A   1      51.884  45.490  22.540  0.00  0.00    -0.383 OA
ATOM      7  HG1 THR A   1      51.695  45.411  23.509  0.00  0.00    +0.210 HD
ENDBRANCH   4   6
ENDBRANCH   1   4
BRANCH   1   8
ATOM      8  C   THR A   1      53.079  48.358  20.411  0.00  0.00    +0.227 C 
ATOM      9  O   THR A   1      52.251  49.197  20.046  0.00  0.00    -0.287 OA
ENDBRANCH   1   8
TORSDOF 4
REMARK  Name = ../refined-set-2016/4pp5/4pp5_pocket.pdb
REMARK  234 active torsions:
REMARK  status: ('A' for Active; 'I' for Inactive)
REMARK    1  A    between atoms: _1  and  _3
REMARK    2  A    between atoms: _3  and  _4
REMARK    3  A    between atoms: _3  and  _6
REMARK    4  A    between atoms: _6  and  _7
REMARK    5  A    between atoms: _7  and  _8
REMARK    6  A    between atoms: _12  and  _13
REMARK    7  A    between atoms: _18  and  _20
REMARK    8  A    between atoms: _20  and  _21
REMARK    9  A    between atoms: _20  and  _23
REMARK   10  A    between atoms: _26  and  _28
REMARK   11  A    between atoms: _28  and  _29
REMARK   12  A    between atoms: _28  and  _31
REMARK   13  A    between atoms: _31  and  _32
REMARK   14  A    between atoms: _35  and  _37
REMARK   15  A    between atoms: _37  and  _38
REMARK   16  A    between atoms: _37  and  _40
REMARK   17  A    between atoms: _40  and  _41
REMARK   18  A    between atoms: _46  and  _48
REMARK   19  A    between atoms: _48  and  _49
REMARK   20  A    between atoms: _48  and  _51
REMARK   21  A    between atoms: _51  and  _52
REMARK   22  A    between atoms: _55  and  _57
REMARK   23  A    between atoms: _57  and  _58
REMARK   24  A    between atoms: _57  and  _60
REMARK   25  A    between atoms: _62  and  _64
REMARK   26  A    between atoms: _64  and  _65
REMARK   27  A    between atoms: _64  and  _67
REMARK   28  A    between atoms: _67  and  _68
REMARK   29  A    between atoms: _68  and  _69
REMARK   30  A    between atoms: _74  and  _76
REMARK   31  A    between atoms: _76  and  _77
REMARK   32  A    between atoms: _80  and  _82
REMARK   33  A    between atoms: _82  and  _83
REMARK   34  A    between atoms: _86  and  _88
REMARK   35  A    between atoms: _88  and  _89
REMARK   36  A    between atoms: _88  and  _91
REMARK   37  A    between atoms: _91  and  _92
REMARK   38  A    between atoms: _95  and  _97
REMARK   39  A    between atoms: _97  and  _98
REMARK   40  A    between atoms: _97  and  _100
REMARK   41  A    between atoms: _100  and  _101
REMARK   42  A    between atoms: _101  and  _102
REMARK   43  A    between atoms: _102  and  _103
REMARK   44  A    between atoms: _103  and  _104
REMARK   45  A    between atoms: _108  and  _110
REMARK   46  A    between atoms: _110  and  _111
REMARK   47  A    between atoms: _110  and  _113
REMARK   48  A    between atoms: _113  and  _114
REMARK   49  A    between atoms: _114  and  _115
REMARK   50  A    between atoms: _120  and  _122
REMARK   51  A    between atoms: _122  and  _123
REMARK   52  A    between atoms: _122  and  _125
REMARK   53  A    between atoms: _125  and  _126
REMARK   54  A    between atoms: _129  and  _131
REMARK   55  A    between atoms: _131  and  _132
REMARK   56  A    between atoms: _131  and  _134
REMARK   57  A    between atoms: _134  and  _135
REMARK   58  A    between atoms: _138  and  _140
REMARK   59  A    between atoms: _140  and  _141
REMARK   60  A    between atoms: _140  and  _143
REMARK   61  A    between atoms: _143  and  _144
REMARK   62  A    between atoms: _154  and  _156
REMARK   63  A    between atoms: _156  and  _157
REMARK   64  A    between atoms: _156  and  _159
REMARK   65  A    between atoms: _159  and  _160
REMARK   66  A    between atoms: _165  and  _167
REMARK   67  A    between atoms: _167  and  _168
REMARK   68  A    between atoms: _167  and  _170
REMARK   69  A    between atoms: _170  and  _171
REMARK   70  A    between atoms: _171  and  _172
REMARK   71  A    between atoms: _175  and  _177
REMARK   72  A    between atoms: _177  and  _178
REMARK   73  A    between atoms: _177  and  _180
REMARK   74  A    between atoms: _180  and  _181
REMARK   75  A    between atoms: _184  and  _186
REMARK   76  A    between atoms: _186  and  _187
REMARK   77  A    between atoms: _186  and  _189
REMARK   78  A    between atoms: _189  and  _190
REMARK   79  A    between atoms: _193  and  _195
REMARK   80  A    between atoms: _195  and  _196
REMARK   81  A    between atoms: _195  and  _198
REMARK   82  A    between atoms: _198  and  _199
REMARK   83  A    between atoms: _202  and  _204
REMARK   84  A    between atoms: _204  and  _205
REMARK   85  A    between atoms: _208  and  _210
REMARK   86  A    between atoms: _210  and  _211
REMARK   87  A    between atoms: _210  and  _213
REMARK   88  A    between atoms: _213  and  _214
REMARK   89  A    between atoms: _216  and  _218
REMARK   90  A    between atoms: _218  and  _219
REMARK   91  A    between atoms: _218  and  _221
REMARK   92  A    between atoms: _221  and  _222
REMARK   93  A    between atoms: _228  and  _230
REMARK   94  A    between atoms: _230  and  _231
REMARK   95  A    between atoms: _230  and  _233
REMARK   96  A    between atoms: _233  and  _234
REMARK   97  A    between atoms: _236  and  _238
REMARK   98  A    between atoms: _238  and  _239
REMARK   99  A    between atoms: _238  and  _241
REMARK  100  A    between atoms: _241  and  _242
REMARK  101  A    between atoms: _247  and  _249
REMARK  102  A    between atoms: _249  and  _250
REMARK  103  A    between atoms: _249  and  _252
REMARK  104  A    between atoms: _252  and  _253
REMARK  105  A    between atoms: _253  and  _254
REMARK  106  A    between atoms: _254  and  _255
REMARK  107  A    between atoms: _264  and  _266
REMARK  108  A    between atoms: _266  and  _267
REMARK  109  A    between atoms: _266  and  _269
REMARK  110  A    between atoms: _269  and  _270
REMARK  111  A    between atoms: _272  and  _274
REMARK  112  A    between atoms: _274  and  _275
REMARK  113  A    between atoms: _274  and  _277
REMARK  114  A    between atoms: _277  and  _278
REMARK  115  A    between atoms: _281  and  _283
REMARK  116  A    between atoms: _283  and  _284
REMARK  117  A    between atoms: _283  and  _286
REMARK  118  A    between atoms: _286  and  _287
REMARK  119  A    between atoms: _290  and  _292
REMARK  120  A    between atoms: _292  and  _293
REMARK  121  A    between atoms: _292  and  _295
REMARK  122  A    between atoms: _295  and  _296
REMARK  123  A    between atoms: _299  and  _301
REMARK  124  A    between atoms: _301  and  _302
REMARK  125  A    between atoms: _305  and  _307
REMARK  126  A    between atoms: _307  and  _308
REMARK  127  A    between atoms: _307  and  _310
REMARK  128  A    between atoms: _310  and  _311
REMARK  129  A    between atoms: _314  and  _316
REMARK  130  A    between atoms: _316  and  _317
REMARK  131  A    between atoms: _319  and  _321
REMARK  132  A    between atoms: _321  and  _322
REMARK  133  A    between atoms: _321  and  _324
REMARK  134  A    between atoms: _324  and  _325
REMARK  135  A    between atoms: _328  and  _330
REMARK  136  A    between atoms: _330  and  _331
REMARK  137  A    between atoms: _330  and  _333
REMARK  138  A    between atoms: _336  and  _338
REMARK  139  A    between atoms: _338  and  _339
REMARK  140  A    between atoms: _342  and  _344
REMARK  141  A    between atoms: _344  and  _345
REMARK  142  A    between atoms: _348  and  _350
REMARK  143  A    between atoms: _350  and  _351
REMARK  144  A    between atoms: _353  and  _355
REMARK  145  A    between atoms: _355  and  _356
REMARK  146  A    between atoms: _355  and  _358
REMARK  147  A    between atoms: _361  and  _363
REMARK  148  A    between atoms: _363  and  _364
REMARK  149  A    between atoms: _366  and  _368
REMARK  150  A    between atoms: _368  and  _369
REMARK  151  A    between atoms: _372  and  _374
REMARK  152  A    between atoms: _374  and  _375
REMARK  153  A    between atoms: _374  and  _377
REMARK  154  A    between atoms: _377  and  _378
REMARK  155  A    between atoms: _381  and  _383
REMARK  156  A    between atoms: _383  and  _384
REMARK  157  A    between atoms: _383  and  _386
REMARK  158  A    between atoms: _386  and  _387
REMARK  159  A    between atoms: _393  and  _395
REMARK  160  A    between atoms: _395  and  _396
REMARK  161  A    between atoms: _395  and  _398
REMARK  162  A    between atoms: _398  and  _399
REMARK  163  A    between atoms: _402  and  _404
REMARK  164  A    between atoms: _404  and  _405
REMARK  165  A    between atoms: _404  and  _407
REMARK  166  A    between atoms: _407  and  _408
REMARK  167  A    between atoms: _408  and  _409
REMARK  168  A    between atoms: _409  and  _410
REMARK  169  A    between atoms: _419  and  _421
REMARK  170  A    between atoms: _421  and  _422
REMARK  171  A    between atoms: _421  and  _424
REMARK  172  A    between atoms: _427  and  _429
REMARK  173  A    between atoms: _429  and  _430
REMARK  174  A    between atoms: _429  and  _432
REMARK  175  A    between atoms: _432  and  _433
REMARK  176  A    between atoms: _436  and  _438
REMARK  177  A    between atoms: _438  and  _439
REMARK  178  A    between atoms: _438  and  _441
REMARK  179  A    between atoms: _441  and  _442
REMARK  180  A    between atoms: _442  and  _443
REMARK  181  A    between atoms: _443  and  _444
REMARK  182  A    between atoms: _453  and  _455
REMARK  183  A    between atoms: _455  and  _456
REMARK  184  A    between atoms: _455  and  _458
REMARK  185  A    between atoms: _458  and  _459
REMARK  186  A    between atoms: _462  and  _464
REMARK  187  A    between atoms: _464  and  _465
REMARK  188  A    between atoms: _467  and  _469
REMARK  189  A    between atoms: _469  and  _470
REMARK  190  A    between atoms: _469  and  _472
REMARK  191  A    between atoms: _472  and  _473
REMARK  192  A    between atoms: _473  and  _474
REMARK  193  A    between atoms: _474  and  _475
REMARK  194  A    between atoms: _475  and  _476
REMARK  195  A    between atoms: _480  and  _482
REMARK  196  A    between atoms: _482  and  _483
REMARK  197  A    between atoms: _482  and  _485
REMARK  198  A    between atoms: _487  and  _489
REMARK  199  A    between atoms: _489  and  _490
REMARK  200  A    between atoms: _489  and  _492
REMARK  201  A    between atoms: _492  and  _493
REMARK  202  A    between atoms: _496  and  _498
REMARK  203  A    between atoms: _498  and  _499
REMARK  204  A    between atoms: _498  and  _501
REMARK  205  A    between atoms: _501  and  _502
REMARK  206  A    between atoms: _502  and  _503
REMARK  207  A    between atoms: _506  and  _508
REMARK  208  A    between atoms: _508  and  _509
REMARK  209  A    between atoms: _508  and  _511
REMARK  210  A    between atoms: _511  and  _512
REMARK  211  A    between atoms: _517  and  _519
REMARK  212  A    between atoms: _519  and  _520
REMARK  213  A    between atoms: _519  and  _522
REMARK  214  A    between atoms: _522  and  _523
REMARK  215  A    between atoms: _526  and  _528
REMARK  216  A    between atoms: _528  and  _529
REMARK  217  A    between atoms: _528  and  _531
REMARK  218  A    between atoms: _531  and  _532
REMARK  219  A    between atoms: _538  and  _540
REMARK  220  A    between atoms: _540  and  _541
REMARK  221  A    between atoms: _540  and  _543
REMARK  222  A    between atoms: _543  and  _544
REMARK  223  A    between atoms: _550  and  _552
REMARK  224  A    between atoms: _552  and  _553
REMARK  225  A    between atoms: _552  and  _555
REMARK  226  A    between atoms: _555  and  _556
REMARK  227  A    between atoms: _559  and  _561
REMARK  228  A    between atoms: _561  and  _562
REMARK  229  A    between atoms: _561  and  _564
REMARK  230  A    between atoms: _564  and  _565
REMARK  231  A    between atoms: _568  and  _570
REMARK  232  A    between atoms: _570  and  _571
REMARK  233  A    between atoms: _570  and  _573
REMARK  234  A    between atoms: _573  and  _574
REMARK                            x       y       z     vdW  Elec       q    Type
REMARK                         _______ _______ _______ _____ _____    ______ ____
ROOT
ATOM      1  CA  ALA A   7      58.296  56.096  29.779  0.00  0.00    +0.149 C 
ATOM      2  CB  ALA A   7      58.076  57.107  28.669  0.00  0.00    +0.031 C 
ENDROOT
BRANCH   1   3
ATOM      3  C   ALA A   7      56.986  55.376  30.100  0.00  0.00    +0.241 C 
ATOM      4  O   ALA A   7      56.343  55.659  31.109  0.00  0.00    -0.273 OA
ATOM      5  N   SER A   8      56.604  54.436  29.242  0.00  0.00    -0.295 N 
ATOM      6  H   SER A   8      57.204  54.229  28.418  0.00  0.00    +0.150 HD
BRANCH   5   7
ATOM      7  CA  SER A   8      55.365  53.686  29.424  0.00  0.00    +0.178 C 
BRANCH   7   8
ATOM      8  C   SER A   8      55.281  52.838  30.695  0.00  0.00    +0.243 C 
ATOM      9  O   SER A   8      54.307  52.945  31.436  0.00  0.00    -0.273 OA
ATOM     10  N   PHE A   9      56.269  51.990  30.962  0.00  0.00    -0.297 N 
ATOM     11  H   PHE A   9      57.090  51.908  30.329  0.00  0.00    +0.150 HD
BRANCH  10  12
ATOM     12  CA  PHE A   9      56.168  51.175  32.174  0.00  0.00    +0.153 C 
BRANCH  12  13
ATOM     13  C   PHE A   9      56.394  52.010  33.428  0.00  0.00    +0.241 C 
ATOM     14  O   PHE A   9      55.905  51.669  34.507  0.00  0.00    -0.273 OA
ATOM     15  N   SER A  10      57.107  53.124  33.287  0.00  0.00    -0.295 N 
ATOM     16  H   SER A  10      57.500  53.374  32.357  0.00  0.00    +0.150 HD
BRANCH  15  17
ATOM     17  CA  SER A  10      57.338  53.995  34.434  0.00  0.00    +0.178 C 
BRANCH  17  18
ATOM     18  C   SER A  10      56.021  54.626  34.871  0.00  0.00    +0.243 C 
ATOM     19  O   SER A  10      55.719  54.684  36.064  0.00  0.00    -0.273 OA
ATOM     20  N   HIS A  11      55.232  55.092  33.907  0.00  0.00    -0.297 N 
ATOM     21  H   HIS A  11      55.528  55.010  32.913  0.00  0.00    +0.150 HD
BRANCH  20  22
ATOM     22  CA  HIS A  11      53.951  55.719  34.234  0.00  0.00    +0.155 C 
BRANCH  22  23
ATOM     23  C   HIS A  11      52.981  54.662  34.757  0.00  0.00    +0.241 C 
ATOM     24  O   HIS A  11      52.185  54.916  35.660  0.00  0.00    -0.273 OA
ATOM     25  N   ARG A  12      53.063  53.465  34.193  0.00  0.00    -0.297 N 
ATOM     26  H   ARG A  12      53.751  53.304  33.430  0.00  0.00    +0.150 HD
BRANCH  25  27
ATOM     27  CA  ARG A  12      52.205  52.374  34.625  0.00  0.00    +0.149 C 
BRANCH  27  28
ATOM     28  C   ARG A  12      52.503  52.030  36.087  0.00  0.00    +0.241 C 
ATOM     29  O   ARG A  12      51.616  51.606  36.827  0.00  0.00    -0.273 OA
ATOM     30  N   SER A  13      53.750  52.241  36.501  0.00  0.00    -0.296 N 
ATOM     31  H   SER A  13      54.436  52.656  35.838  0.00  0.00    +0.150 HD
BRANCH  30  32
ATOM     32  CA  SER A  13      54.190  51.909  37.858  0.00  0.00    +0.166 C 
BRANCH  32  33
ATOM     33  C   SER A  13      53.932  52.937  38.960  0.00  0.00    +0.229 C 
ATOM     34  O   SER A  13      54.313  52.720  40.110  0.00  0.00    -0.286 OA
ENDBRANCH  32  33
BRANCH  32  35
ATOM     35  CB  SER A  13      55.682  51.569  37.829  0.00  0.00    +0.165 C 
BRANCH  35  36
ATOM     36  OG  SER A  13      55.934  50.532  36.895  0.00  0.00    -0.380 OA
ATOM     37  H   SER A  13      55.652  50.826  35.993  0.00  0.00    +0.211 HD
ENDBRANCH  35  36
ENDBRANCH  32  35
ENDBRANCH  30  32
ENDBRANCH  27  28
BRANCH  27  38
ATOM     38  CB  ARG A  12      52.455  51.143  33.747  0.00  0.00    +0.033 C 
BRANCH  38  39
ATOM     39  CG  ARG A  12      51.616  49.925  34.103  0.00  0.00    +0.045 C 
BRANCH  39  40
ATOM     40  CD  ARG A  12      52.097  48.696  33.341  0.00  0.00    +0.174 C 
BRANCH  40  41
ATOM     41  NE  ARG A  12      52.157  48.943  31.905  0.00  0.00    -0.265 N 
ATOM     42  HE  ARG A  12      51.333  49.389  31.454  0.00  0.00    +0.259 HD
ATOM     43  CZ  ARG A  12      53.197  48.635  31.135  0.00  0.00    +0.342 C 
ATOM     44  NH2 ARG A  12      54.276  48.066  31.662  0.00  0.00    -0.292 N 
ATOM     45 HH21 ARG A  12      54.310  47.860  32.681  0.00  0.00    +0.255 HD
ATOM     46 HH22 ARG A  12      55.087  47.827  31.056  0.00  0.00    +0.255 HD
ATOM     47  NH1 ARG A  12      53.162  48.906  29.841  0.00  0.00    -0.292 N 
ATOM     48 HH11 ARG A  12      52.322  49.359  29.427  0.00  0.00    +0.255 HD
ATOM     49 HH12 ARG A  12      53.974  48.666  29.237  0.00  0.00    +0.255 HD
ENDBRANCH  40  41
ENDBRANCH  39  40
ENDBRANCH  38  39
ENDBRANCH  27  38
ENDBRANCH  25  27
ENDBRANCH  22  23
BRANCH  22  50
ATOM     50  CB  HIS A  11      53.378  56.425  33.000  0.00  0.00    +0.076 C 
BRANCH  50  51
ATOM     51  CG  HIS A  11      52.148  57.232  33.282  0.00  0.00    +0.082 A 
ATOM     52  CD2 HIS A  11      52.000  58.503  33.728  0.00  0.00    +0.115 A 
ATOM     53  NE2 HIS A  11      50.652  58.732  33.859  0.00  0.00    -0.221 NA
ATOM     54  CE1 HIS A  11      49.994  57.642  33.504  0.00  0.00    +0.199 A 
ATOM     55  ND1 HIS A  11      50.874  56.721  33.151  0.00  0.00    -0.227 NA
ENDBRANCH  50  51
ENDBRANCH  22  50
ENDBRANCH  20  22
ENDBRANCH  17  18
BRANCH  17  56
ATOM     56  CB  SER A  10      58.335  55.103  34.090  0.00  0.00    +0.166 C 
BRANCH  56  57
ATOM     57  OG  SER A  10      59.648  54.591  33.967  0.00  0.00    -0.380 OA
ATOM     58  H   SER A  10      59.670  53.912  33.247  0.00  0.00    +0.211 HD
ENDBRANCH  56  57
ENDBRANCH  17  56
ENDBRANCH  15  17
ENDBRANCH  12  13
BRANCH  12  59
ATOM     59  CB  PHE A   9      57.097  49.937  32.116  0.00  0.00    +0.055 C 
BRANCH  59  60
ATOM     60  CG  PHE A   9      58.565  50.221  32.335  0.00  0.00    -0.020 A 
ATOM     61  CD2 PHE A   9      59.038  50.650  33.570  0.00  0.00    -0.004 A 
ATOM     62  CE2 PHE A   9      60.405  50.840  33.790  0.00  0.00    -0.000 A 
ATOM     63  CZ  PHE A   9      61.312  50.599  32.763  0.00  0.00    -0.000 A 
ATOM     64  CE1 PHE A   9      60.853  50.173  31.522  0.00  0.00    -0.000 A 
ATOM     65  CD1 PHE A   9      59.484  49.987  31.314  0.00  0.00    -0.004 A 
ENDBRANCH  59  60
ENDBRANCH  12  59
ENDBRANCH  10  12
ENDBRANCH   7   8
BRANCH   7  66
ATOM     66  CB  SER A   8      55.101  52.795  28.204  0.00  0.00    +0.166 C 
BRANCH  66  67
ATOM     67  OG  SER A   8      54.790  53.578  27.065  0.00  0.00    -0.380 OA
ATOM     68  H   SER A   8      53.980  54.117  27.248  0.00  0.00    +0.211 HD
ENDBRANCH  66  67
ENDBRANCH   7  66
ENDBRANCH   5   7
ENDBRANCH   1   3
BRANCH   1  71
ATOM     69  C   ILE A   6      59.646  54.122  30.174  0.00  0.00    +0.241 C 
ATOM     70  O   ILE A   6      59.157  53.978  31.294  0.00  0.00    -0.273 OA
ATOM     71  N   ALA A   7      59.297  55.116  29.370  0.00  0.00    -0.297 N 
ATOM     72  H   ALA A   7      59.743  55.199  28.434  0.00  0.00    +0.150 HD
BRANCH  69  73
ATOM     73  CA  ILE A   6      60.689  53.134  29.637  0.00  0.00    +0.149 C 
BRANCH  73  76
ATOM     74  C   LEU A   5      59.275  52.124  27.946  0.00  0.00    +0.241 C 
ATOM     75  O   LEU A   5      58.446  51.789  28.790  0.00  0.00    -0.273 OA
ATOM     76  N   ILE A   6      60.394  52.773  28.254  0.00  0.00    -0.297 N 
ATOM     77  H   ILE A   6      61.066  53.026  27.502  0.00  0.00    +0.150 HD
BRANCH  74  78
ATOM     78  CA  LEU A   5      59.053  51.798  26.477  0.00  0.00    +0.149 C 
BRANCH  78  81
ATOM     79  C   LEU A   4      58.823  54.012  25.526  0.00  0.00    +0.241 C 
ATOM     80  O   LEU A   4      57.788  54.215  26.168  0.00  0.00    -0.273 OA
ATOM     81  N   LEU A   5      59.509  52.874  25.610  0.00  0.00    -0.297 N 
ATOM     82  H   LEU A   5      60.378  52.753  25.051  0.00  0.00    +0.150 HD
BRANCH  79  83
ATOM     83  CA  LEU A   4      59.372  55.078  24.582  0.00  0.00    +0.149 C 
BRANCH  83  86
ATOM     84  C   GLU A   3      61.387  55.575  25.835  0.00  0.00    +0.241 C 
ATOM     85  O   GLU A   3      60.732  55.824  26.848  0.00  0.00    -0.273 OA
ATOM     86  N   LEU A   4      60.822  55.210  24.689  0.00  0.00    -0.297 N 
ATOM     87  H   LEU A   4      61.419  55.016  23.860  0.00  0.00    +0.150 HD
BRANCH  84  88
ATOM     88  CA  GLU A   3      62.914  55.676  25.846  0.00  0.00    +0.149 C 
BRANCH  88  91
ATOM     89  C   ASN A   2      63.395  53.347  25.430  0.00  0.00    +0.241 C 
ATOM     90  O   ASN A   2      62.845  53.038  26.485  0.00  0.00    -0.273 OA
ATOM     91  N   GLU A   3      63.492  54.609  25.028  0.00  0.00    -0.297 N 
ATOM     92  H   GLU A   3      63.976  54.838  24.136  0.00  0.00    +0.150 HD
BRANCH  89  93
ATOM     93  CA  ASN A   2      63.984  52.259  24.531  0.00  0.00    +0.158 C 
BRANCH  93  96
ATOM     94  C   TRP A   1      62.370  52.373  22.744  0.00  0.00    +0.239 C 
ATOM     95  O   TRP A   1      61.456  52.198  23.550  0.00  0.00    -0.274 OA
ATOM     96  N   ASN A   2      63.645  52.437  23.122  0.00  0.00    -0.297 N 
ATOM     97  H   ASN A   2      64.392  52.612  22.420  0.00  0.00    +0.150 HD
BRANCH  94  98
ATOM     98  CA  TRP A   1      62.051  52.530  21.259  0.00  0.00    +0.149 C 
BRANCH  98  99
ATOM     99  N   TRP A   1      62.723  53.628  20.573  0.00  0.00    -0.238 NA
ATOM    100  H   TRP A   1      63.202  53.456  19.666  0.00  0.00    +0.142 HD
ENDBRANCH  98  99
BRANCH  98 101
ATOM    101  CB  TRP A   1      62.306  51.194  20.547  0.00  0.00    +0.054 C 
BRANCH 101 102
ATOM    102  CG  TRP A   1      63.683  50.625  20.734  0.00  0.00    -0.002 A 
ATOM    103  CD2 TRP A   1      64.103  49.724  21.766  0.00  0.00    +0.013 A 
ATOM    104  CE3 TRP A   1      63.458  49.128  22.856  0.00  0.00    +0.001 A 
ATOM    105  CZ3 TRP A   1      64.190  48.281  23.688  0.00  0.00    +0.000 A 
ATOM    106  CH2 TRP A   1      65.553  48.024  23.442  0.00  0.00    +0.001 A 
ATOM    107  CZ2 TRP A   1      66.207  48.593  22.381  0.00  0.00    +0.017 A 
ATOM    108  CE2 TRP A   1      65.471  49.445  21.547  0.00  0.00    +0.056 A 
ATOM    109  NE1 TRP A   1      65.858  50.146  20.434  0.00  0.00    -0.352 N 
ATOM    110  HE1 TRP A   1      66.812  50.144  20.020  0.00  0.00    +0.166 HD
ATOM    111  CD1 TRP A   1      64.781  50.852  19.954  0.00  0.00    +0.068 A 
ENDBRANCH 101 102
ENDBRANCH  98 101
ENDBRANCH  94  98
ENDBRANCH  93  96
BRANCH  93 112
ATOM    112  CB  ASN A   2      65.509  52.137  24.729  0.00  0.00    +0.114 C 
BRANCH 112 113
ATOM    113  CG  ASN A   2      66.283  53.285  24.120  0.00  0.00    +0.222 C 
ATOM    114  ND2 ASN A   2      67.175  53.882  24.909  0.00  0.00    -0.329 N 
ATOM    115 HD21 ASN A   2      67.297  53.562  25.891  0.00  0.00    +0.145 HD
ATOM    116 HD22 ASN A   2      67.749  54.668  24.543  0.00  0.00    +0.145 HD
ATOM    117  OD1 ASN A   2      66.100  53.625  22.953  0.00  0.00    -0.275 OA
ENDBRANCH 112 113
ENDBRANCH  93 112
ENDBRANCH  89  93
ENDBRANCH  88  91
BRANCH  88 118
ATOM    118  CB  GLU A   3      63.323  57.057  25.333  0.00  0.00    +0.041 C 
BRANCH 118 119
ATOM    119  CG  GLU A   3      64.807  57.358  25.440  0.00  0.00    +0.116 C 
BRANCH 119 120
ATOM    120  CD  GLU A   3      65.133  58.739  24.921  0.00  0.00    +0.365 C 
ATOM    121  OE2 GLU A   3      64.246  59.623  24.973  0.00  0.00    -0.246 OA
ATOM    122  OE1 GLU A   3      66.272  58.943  24.462  0.00  0.00    -0.246 OA
ENDBRANCH 119 120
ENDBRANCH 118 119
ENDBRANCH  88 118
ENDBRANCH  84  88
ENDBRANCH  83  86
BRANCH  83 123
ATOM    123  CB  LEU A   4      58.978  54.750  23.134  0.00  0.00    +0.029 C 
BRANCH 123 124
ATOM    124  CG  LEU A   4      59.114  55.942  22.184  0.00  0.00    +0.002 C 
ATOM    125  CD2 LEU A   4      58.013  56.967  22.495  0.00  0.00    +0.000 C 
ATOM    126  CD1 LEU A   4      59.033  55.472  20.739  0.00  0.00    +0.000 C 
ENDBRANCH 123 124
ENDBRANCH  83 123
ENDBRANCH  79  83
ENDBRANCH  78  81
BRANCH  78 127
ATOM    127  CB  LEU A   5      59.757  50.479  26.128  0.00  0.00    +0.029 C 
BRANCH 127 128
ATOM    128  CG  LEU A   5      59.536  49.891  24.732  0.00  0.00    +0.002 C 
ATOM    129  CD2 LEU A   5      60.125  48.473  24.709  0.00  0.00    +0.000 C 
ATOM    130  CD1 LEU A   5      58.047  49.853  24.397  0.00  0.00    +0.000 C 
ENDBRANCH 127 128
ENDBRANCH  78 127
ENDBRANCH  74  78
ENDBRANCH  73  76
BRANCH  73 131
ATOM    131  CB  ILE A   6      62.108  53.727  29.753  0.00  0.00    +0.027 C 
ATOM    132  CG2 ILE A   6      62.307  54.358  31.125  0.00  0.00    +0.002 C 
BRANCH 131 133
ATOM    133  CG1 ILE A   6      63.143  52.608  29.533  0.00  0.00    +0.002 C 
ATOM    134  CD1 ILE A   6      64.585  53.101  29.401  0.00  0.00    +0.000 C 
ENDBRANCH 131 133
ENDBRANCH  73 131
ENDBRANCH  69  73
ENDBRANCH   1  71
TORSDOF 53
REMARK  Name = ../refined-set-2016/4pp5/4pp5_pocket.pdb
REMARK  234 active torsions:
REMARK  status: ('A' for Active; 'I' for Inactive)
REMARK    1  A    between atoms: _1  and  _3
REMARK    2  A    between atoms: _3  and  _4
REMARK    3  A    between atoms: _3  and  _6
REMARK    4  A    between atoms: _6  and  _7
REMARK    5  A    between atoms: _7  and  _8
REMARK    6  A    between atoms: _12  and  _13
REMARK    7  A    between atoms: _18  and  _20
REMARK    8  A    between atoms: _20  and  _21
REMARK    9  A    between atoms: _20  and  _23
REMARK   10  A    between atoms: _26  and  _28
REMARK   11  A    between atoms: _28  and  _29
REMARK   12  A    between atoms: _28  and  _31
REMARK   13  A    between atoms: _31  and  _32
REMARK   14  A    between atoms: _35  and  _37
REMARK   15  A    between atoms: _37  and  _38
REMARK   16  A    between atoms: _37  and  _40
REMARK   17  A    between atoms: _40  and  _41
REMARK   18  A    between atoms: _46  and  _48
REMARK   19  A    between atoms: _48  and  _49
REMARK   20  A    between atoms: _48  and  _51
REMARK   21  A    between atoms: _51  and  _52
REMARK   22  A    between atoms: _55  and  _57
REMARK   23  A    between atoms: _57  and  _58
REMARK   24  A    between atoms: _57  and  _60
REMARK   25  A    between atoms: _62  and  _64
REMARK   26  A    between atoms: _64  and  _65
REMARK   27  A    between atoms: _64  and  _67
REMARK   28  A    between atoms: _67  and  _68
REMARK   29  A    between atoms: _68  and  _69
REMARK   30  A    between atoms: _74  and  _76
REMARK   31  A    between atoms: _76  and  _77
REMARK   32  A    between atoms: _80  and  _82
REMARK   33  A    between atoms: _82  and  _83
REMARK   34  A    between atoms: _86  and  _88
REMARK   35  A    between atoms: _88  and  _89
REMARK   36  A    between atoms: _88  and  _91
REMARK   37  A    between atoms: _91  and  _92
REMARK   38  A    between atoms: _95  and  _97
REMARK   39  A    between atoms: _97  and  _98
REMARK   40  A    between atoms: _97  and  _100
REMARK   41  A    between atoms: _100  and  _101
REMARK   42  A    between atoms: _101  and  _102
REMARK   43  A    between atoms: _102  and  _103
REMARK   44  A    between atoms: _103  and  _104
REMARK   45  A    between atoms: _108  and  _110
REMARK   46  A    between atoms: _110  and  _111
REMARK   47  A    between atoms: _110  and  _113
REMARK   48  A    between atoms: _113  and  _114
REMARK   49  A    between atoms: _114  and  _115
REMARK   50  A    between atoms: _120  and  _122
REMARK   51  A    between atoms: _122  and  _123
REMARK   52  A    between atoms: _122  and  _125
REMARK   53  A    between atoms: _125  and  _126
REMARK   54  A    between atoms: _129  and  _131
REMARK   55  A    between atoms: _131  and  _132
REMARK   56  A    between atoms: _131  and  _134
REMARK   57  A    between atoms: _134  and  _135
REMARK   58  A    between atoms: _138  and  _140
REMARK   59  A    between atoms: _140  and  _141
REMARK   60  A    between atoms: _140  and  _143
REMARK   61  A    between atoms: _143  and  _144
REMARK   62  A    between atoms: _154  and  _156
REMARK   63  A    between atoms: _156  and  _157
REMARK   64  A    between atoms: _156  and  _159
REMARK   65  A    between atoms: _159  and  _160
REMARK   66  A    between atoms: _165  and  _167
REMARK   67  A    between atoms: _167  and  _168
REMARK   68  A    between atoms: _167  and  _170
REMARK   69  A    between atoms: _170  and  _171
REMARK   70  A    between atoms: _171  and  _172
REMARK   71  A    between atoms: _175  and  _177
REMARK   72  A    between atoms: _177  and  _178
REMARK   73  A    between atoms: _177  and  _180
REMARK   74  A    between atoms: _180  and  _181
REMARK   75  A    between atoms: _184  and  _186
REMARK   76  A    between atoms: _186  and  _187
REMARK   77  A    between atoms: _186  and  _189
REMARK   78  A    between atoms: _189  and  _190
REMARK   79  A    between atoms: _193  and  _195
REMARK   80  A    between atoms: _195  and  _196
REMARK   81  A    between atoms: _195  and  _198
REMARK   82  A    between atoms: _198  and  _199
REMARK   83  A    between atoms: _202  and  _204
REMARK   84  A    between atoms: _204  and  _205
REMARK   85  A    between atoms: _208  and  _210
REMARK   86  A    between atoms: _210  and  _211
REMARK   87  A    between atoms: _210  and  _213
REMARK   88  A    between atoms: _213  and  _214
REMARK   89  A    between atoms: _216  and  _218
REMARK   90  A    between atoms: _218  and  _219
REMARK   91  A    between atoms: _218  and  _221
REMARK   92  A    between atoms: _221  and  _222
REMARK   93  A    between atoms: _228  and  _230
REMARK   94  A    between atoms: _230  and  _231
REMARK   95  A    between atoms: _230  and  _233
REMARK   96  A    between atoms: _233  and  _234
REMARK   97  A    between atoms: _236  and  _238
REMARK   98  A    between atoms: _238  and  _239
REMARK   99  A    between atoms: _238  and  _241
REMARK  100  A    between atoms: _241  and  _242
REMARK  101  A    between atoms: _247  and  _249
REMARK  102  A    between atoms: _249  and  _250
REMARK  103  A    between atoms: _249  and  _252
REMARK  104  A    between atoms: _252  and  _253
REMARK  105  A    between atoms: _253  and  _254
REMARK  106  A    between atoms: _254  and  _255
REMARK  107  A    between atoms: _264  and  _266
REMARK  108  A    between atoms: _266  and  _267
REMARK  109  A    between atoms: _266  and  _269
REMARK  110  A    between atoms: _269  and  _270
REMARK  111  A    between atoms: _272  and  _274
REMARK  112  A    between atoms: _274  and  _275
REMARK  113  A    between atoms: _274  and  _277
REMARK  114  A    between atoms: _277  and  _278
REMARK  115  A    between atoms: _281  and  _283
REMARK  116  A    between atoms: _283  and  _284
REMARK  117  A    between atoms: _283  and  _286
REMARK  118  A    between atoms: _286  and  _287
REMARK  119  A    between atoms: _290  and  _292
REMARK  120  A    between atoms: _292  and  _293
REMARK  121  A    between atoms: _292  and  _295
REMARK  122  A    between atoms: _295  and  _296
REMARK  123  A    between atoms: _299  and  _301
REMARK  124  A    between atoms: _301  and  _302
REMARK  125  A    between atoms: _305  and  _307
REMARK  126  A    between atoms: _307  and  _308
REMARK  127  A    between atoms: _307  and  _310
REMARK  128  A    between atoms: _310  and  _311
REMARK  129  A    between atoms: _314  and  _316
REMARK  130  A    between atoms: _316  and  _317
REMARK  131  A    between atoms: _319  and  _321
REMARK  132  A    between atoms: _321  and  _322
REMARK  133  A    between atoms: _321  and  _324
REMARK  134  A    between atoms: _324  and  _325
REMARK  135  A    between atoms: _328  and  _330
REMARK  136  A    between atoms: _330  and  _331
REMARK  137  A    between atoms: _330  and  _333
REMARK  138  A    between atoms: _336  and  _338
REMARK  139  A    between atoms: _338  and  _339
REMARK  140  A    between atoms: _342  and  _344
REMARK  141  A    between atoms: _344  and  _345
REMARK  142  A    between atoms: _348  and  _350
REMARK  143  A    between atoms: _350  and  _351
REMARK  144  A    between atoms: _353  and  _355
REMARK  145  A    between atoms: _355  and  _356
REMARK  146  A    between atoms: _355  and  _358
REMARK  147  A    between atoms: _361  and  _363
REMARK  148  A    between atoms: _363  and  _364
REMARK  149  A    between atoms: _366  and  _368
REMARK  150  A    between atoms: _368  and  _369
REMARK  151  A    between atoms: _372  and  _374
REMARK  152  A    between atoms: _374  and  _375
REMARK  153  A    between atoms: _374  and  _377
REMARK  154  A    between atoms: _377  and  _378
REMARK  155  A    between atoms: _381  and  _383
REMARK  156  A    between atoms: _383  and  _384
REMARK  157  A    between atoms: _383  and  _386
REMARK  158  A    between atoms: _386  and  _387
REMARK  159  A    between atoms: _393  and  _395
REMARK  160  A    between atoms: _395  and  _396
REMARK  161  A    between atoms: _395  and  _398
REMARK  162  A    between atoms: _398  and  _399
REMARK  163  A    between atoms: _402  and  _404
REMARK  164  A    between atoms: _404  and  _405
REMARK  165  A    between atoms: _404  and  _407
REMARK  166  A    between atoms: _407  and  _408
REMARK  167  A    between atoms: _408  and  _409
REMARK  168  A    between atoms: _409  and  _410
REMARK  169  A    between atoms: _419  and  _421
REMARK  170  A    between atoms: _421  and  _422
REMARK  171  A    between atoms: _421  and  _424
REMARK  172  A    between atoms: _427  and  _429
REMARK  173  A    between atoms: _429  and  _430
REMARK  174  A    between atoms: _429  and  _432
REMARK  175  A    between atoms: _432  and  _433
REMARK  176  A    between atoms: _436  and  _438
REMARK  177  A    between atoms: _438  and  _439
REMARK  178  A    between atoms: _438  and  _441
REMARK  179  A    between atoms: _441  and  _442
REMARK  180  A    between atoms: _442  and  _443
REMARK  181  A    between atoms: _443  and  _444
REMARK  182  A    between atoms: _453  and  _455
REMARK  183  A    between atoms: _455  and  _456
REMARK  184  A    between atoms: _455  and  _458
REMARK  185  A    between atoms: _458  and  _459
REMARK  186  A    between atoms: _462  and  _464
REMARK  187  A    between atoms: _464  and  _465
REMARK  188  A    between atoms: _467  and  _469
REMARK  189  A    between atoms: _469  and  _470
REMARK  190  A    between atoms: _469  and  _472
REMARK  191  A    between atoms: _472  and  _473
REMARK  192  A    between atoms: _473  and  _474
REMARK  193  A    between atoms: _474  and  _475
REMARK  194  A    between atoms: _475  and  _476
REMARK  195  A    between atoms: _480  and  _482
REMARK  196  A    between atoms: _482  and  _483
REMARK  197  A    between atoms: _482  and  _485
REMARK  198  A    between atoms: _487  and  _489
REMARK  199  A    between atoms: _489  and  _490
REMARK  200  A    between atoms: _489  and  _492
REMARK  201  A    between atoms: _492  and  _493
REMARK  202  A    between atoms: _496  and  _498
REMARK  203  A    between atoms: _498  and  _499
REMARK  204  A    between atoms: _498  and  _501
REMARK  205  A    between atoms: _501  and  _502
REMARK  206  A    between atoms: _502  and  _503
REMARK  207  A    between atoms: _506  and  _508
REMARK  208  A    between atoms: _508  and  _509
REMARK  209  A    between atoms: _508  and  _511
REMARK  210  A    between atoms: _511  and  _512
REMARK  211  A    between atoms: _517  and  _519
REMARK  212  A    between atoms: _519  and  _520
REMARK  213  A    between atoms: _519  and  _522
REMARK  214  A    between atoms: _522  and  _523
REMARK  215  A    between atoms: _526  and  _528
REMARK  216  A    between atoms: _528  and  _529
REMARK  217  A    between atoms: _528  and  _531
REMARK  218  A    between atoms: _531  and  _532
REMARK  219  A    between atoms: _538  and  _540
REMARK  220  A    between atoms: _540  and  _541
REMARK  221  A    between atoms: _540  and  _543
REMARK  222  A    between atoms: _543  and  _544
REMARK  223  A    between atoms: _550  and  _552
REMARK  224  A    between atoms: _552  and  _553
REMARK  225  A    between atoms: _552  and  _555
REMARK  226  A    between atoms: _555  and  _556
REMARK  227  A    between atoms: _559  and  _561
REMARK  228  A    between atoms: _561  and  _562
REMARK  229  A    between atoms: _561  and  _564
REMARK  230  A    between atoms: _564  and  _565
REMARK  231  A    between atoms: _568  and  _570
REMARK  232  A    between atoms: _570  and  _571
REMARK  233  A    between atoms: _570  and  _573
REMARK  234  A    between atoms: _573  and  _574
REMARK                            x       y       z     vdW  Elec       q    Type
REMARK                         _______ _______ _______ _____ _____    ______ ____
ROOT
ATOM      1  C   LEU A   3      54.456  44.632  32.760  0.00  0.00    +0.241 C 
ATOM      2  O   LEU A   3      53.432  44.275  33.340  0.00  0.00    -0.273 OA
ATOM      3  N   ALA A   4      54.508  44.824  31.447  0.00  0.00    -0.297 N 
ATOM      4  H   ALA A   4      55.402  45.124  31.009  0.00  0.00    +0.150 HD
ENDROOT
BRANCH   3   5
ATOM      5  CA  ALA A   4      53.329  44.620  30.607  0.00  0.00    +0.149 C 
ATOM      6  CB  ALA A   4      53.638  45.009  29.173  0.00  0.00    +0.031 C 
BRANCH   5   7
ATOM      7  C   ALA A   4      52.836  43.175  30.659  0.00  0.00    +0.241 C 
ATOM      8  N   THR A   5      53.688  42.278  31.141  0.00  0.00    -0.295 N 
ATOM      9  H   THR A   5      54.629  42.593  31.451  0.00  0.00    +0.150 HD
ATOM     10  O   ALA A   4      51.705  42.882  30.272  0.00  0.00    -0.273 OA
BRANCH   8  11
ATOM     11  CA  THR A   5      53.344  40.864  31.249  0.00  0.00    +0.176 C 
BRANCH  11  12
ATOM     12  C   THR A   5      52.509  40.570  32.497  0.00  0.00    +0.243 C 
ATOM     13  N   GLY A   6      52.262  41.597  33.304  0.00  0.00    -0.295 N 
ATOM     14  H   GLY A   6      52.629  42.541  33.067  0.00  0.00    +0.150 HD
ATOM     15  O   THR A   5      52.104  39.428  32.727  0.00  0.00    -0.273 OA
BRANCH  13  16
ATOM     16  CA  GLY A   6      51.482  41.407  34.515  0.00  0.00    +0.176 C 
BRANCH  16  17
ATOM     17  C   GLY A   6      52.349  41.051  35.709  0.00  0.00    +0.243 C 
ATOM     18  O   GLY A   6      51.843  40.780  36.802  0.00  0.00    -0.273 OA
ATOM     19  N   LEU A   7      53.660  41.058  35.496  0.00  0.00    -0.298 N 
ATOM     20  H   LEU A   7      54.011  41.301  34.548  0.00  0.00    +0.150 HD
BRANCH  19  21
ATOM     21  CA  LEU A   7      54.627  40.737  36.542  0.00  0.00    +0.137 C 
BRANCH  21  22
ATOM     22  C   LEU A   7      55.165  42.014  37.198  0.00  0.00    +0.227 C 
ATOM     23  O   LEU A   7      55.324  43.040  36.542  0.00  0.00    -0.286 OA
ENDBRANCH  21  22
BRANCH  21  24
ATOM     24  CB  LEU A   7      55.783  39.935  35.934  0.00  0.00    +0.028 C 
BRANCH  24  25
ATOM     25  CG  LEU A   7      56.063  38.510  36.417  0.00  0.00    +0.002 C 
ATOM     26  CD2 LEU A   7      54.770  37.736  36.625  0.00  0.00    +0.000 C 
ATOM     27  CD1 LEU A   7      56.948  37.814  35.388  0.00  0.00    +0.000 C 
ENDBRANCH  24  25
ENDBRANCH  21  24
ENDBRANCH  19  21
ENDBRANCH  16  17
ENDBRANCH  13  16
ENDBRANCH  11  12
BRANCH  11  28
ATOM     28  CB  THR A   5      54.611  39.996  31.308  0.00  0.00    +0.137 C 
ATOM     29  CG2 THR A   5      55.354  40.041  29.975  0.00  0.00    +0.034 C 
BRANCH  28  30
ATOM     30  OG1 THR A   5      55.467  40.473  32.355  0.00  0.00    -0.382 OA
ATOM     31  HG1 THR A   5      56.283  39.914  32.393  0.00  0.00    +0.210 HD
ENDBRANCH  28  30
ENDBRANCH  11  28
ENDBRANCH   8  11
ENDBRANCH   5   7
ENDBRANCH   3   5
BRANCH   1  32
ATOM     32  CA  LEU A   3      55.744  44.871  33.540  0.00  0.00    +0.149 C 
BRANCH  32  34
ATOM     33  C   LEU A   2      55.077  46.417  35.284  0.00  0.00    +0.241 C 
ATOM     34  N   LEU A   3      55.428  45.186  34.924  0.00  0.00    -0.297 N 
ATOM     35  H   LEU A   3      55.477  44.437  35.644  0.00  0.00    +0.150 HD
ATOM     36  O   LEU A   2      55.020  47.354  34.491  0.00  0.00    -0.273 OA
BRANCH  33  37
ATOM     37  CA  LEU A   2      54.762  46.637  36.758  0.00  0.00    +0.149 C 
BRANCH  37  40
ATOM     38  C   ILE A   1      56.729  47.287  38.041  0.00  0.00    +0.238 C 
ATOM     39  O   ILE A   1      56.939  46.136  38.432  0.00  0.00    -0.274 OA
ATOM     40  N   LEU A   2      55.708  47.622  37.258  0.00  0.00    -0.297 N 
ATOM     41  H   LEU A   2      55.582  48.620  36.995  0.00  0.00    +0.150 HD
BRANCH  38  42
ATOM     42  CA  ILE A   1      57.640  48.429  38.451  0.00  0.00    +0.145 C 
BRANCH  42  43
ATOM     43  N   ILE A   1      58.337  48.134  39.691  0.00  0.00    -0.238 NA
ATOM     44  H   ILE A   1      58.851  47.235  39.791  0.00  0.00    +0.142 HD
ENDBRANCH  42  43
BRANCH  42  45
ATOM     45  CB  ILE A   1      58.639  48.707  37.305  0.00  0.00    +0.025 C 
ATOM     46  CG2 ILE A   1      59.575  49.834  37.707  0.00  0.00    +0.002 C 
BRANCH  45  47
ATOM     47  CG1 ILE A   1      59.458  47.452  36.998  0.00  0.00    +0.002 C 
ATOM     48  CD1 ILE A   1      60.431  47.613  35.819  0.00  0.00    +0.000 C 
ENDBRANCH  45  47
ENDBRANCH  42  45
ENDBRANCH  38  42
ENDBRANCH  37  40
BRANCH  37  49
ATOM     49  CB  LEU A   2      53.327  47.153  36.907  0.00  0.00    +0.029 C 
BRANCH  49  50
ATOM     50  CG  LEU A   2      52.212  46.285  36.311  0.00  0.00    +0.002 C 
ATOM     51  CD2 LEU A   2      52.245  44.877  36.908  0.00  0.00    +0.000 C 
ATOM     52  CD1 LEU A   2      50.867  46.945  36.584  0.00  0.00    +0.000 C 
ENDBRANCH  49  50
ENDBRANCH  37  49
ENDBRANCH  33  37
ENDBRANCH  32  34
BRANCH  32  53
ATOM     53  CB  LEU A   3      56.631  43.624  33.472  0.00  0.00    +0.029 C 
BRANCH  53  54
ATOM     54  CG  LEU A   3      57.886  43.624  34.351  0.00  0.00    +0.002 C 
ATOM     55  CD2 LEU A   3      58.668  42.334  34.104  0.00  0.00    +0.000 C 
ATOM     56  CD1 LEU A   3      58.754  44.847  34.037  0.00  0.00    +0.000 C 
ENDBRANCH  53  54
ENDBRANCH  32  53
ENDBRANCH   1  32
TORSDOF 24
REMARK  Name = ../refined-set-2016/4pp5/4pp5_pocket.pdb
REMARK  234 active torsions:
REMARK  status: ('A' for Active; 'I' for Inactive)
REMARK    1  A    between atoms: _1  and  _3
REMARK    2  A    between atoms: _3  and  _4
REMARK    3  A    between atoms: _3  and  _6
REMARK    4  A    between atoms: _6  and  _7
REMARK    5  A    between atoms: _7  and  _8
REMARK    6  A    between atoms: _12  and  _13
REMARK    7  A    between atoms: _18  and  _20
REMARK    8  A    between atoms: _20  and  _21
REMARK    9  A    between atoms: _20  and  _23
REMARK   10  A    between atoms: _26  and  _28
REMARK   11  A    between atoms: _28  and  _29
REMARK   12  A    between atoms: _28  and  _31
REMARK   13  A    between atoms: _31  and  _32
REMARK   14  A    between atoms: _35  and  _37
REMARK   15  A    between atoms: _37  and  _38
REMARK   16  A    between atoms: _37  and  _40
REMARK   17  A    between atoms: _40  and  _41
REMARK   18  A    between atoms: _46  and  _48
REMARK   19  A    between atoms: _48  and  _49
REMARK   20  A    between atoms: _48  and  _51
REMARK   21  A    between atoms: _51  and  _52
REMARK   22  A    between atoms: _55  and  _57
REMARK   23  A    between atoms: _57  and  _58
REMARK   24  A    between atoms: _57  and  _60
REMARK   25  A    between atoms: _62  and  _64
REMARK   26  A    between atoms: _64  and  _65
REMARK   27  A    between atoms: _64  and  _67
REMARK   28  A    between atoms: _67  and  _68
REMARK   29  A    between atoms: _68  and  _69
REMARK   30  A    between atoms: _74  and  _76
REMARK   31  A    between atoms: _76  and  _77
REMARK   32  A    between atoms: _80  and  _82
REMARK   33  A    between atoms: _82  and  _83
REMARK   34  A    between atoms: _86  and  _88
REMARK   35  A    between atoms: _88  and  _89
REMARK   36  A    between atoms: _88  and  _91
REMARK   37  A    between atoms: _91  and  _92
REMARK   38  A    between atoms: _95  and  _97
REMARK   39  A    between atoms: _97  and  _98
REMARK   40  A    between atoms: _97  and  _100
REMARK   41  A    between atoms: _100  and  _101
REMARK   42  A    between atoms: _101  and  _102
REMARK   43  A    between atoms: _102  and  _103
REMARK   44  A    between atoms: _103  and  _104
REMARK   45  A    between atoms: _108  and  _110
REMARK   46  A    between atoms: _110  and  _111
REMARK   47  A    between atoms: _110  and  _113
REMARK   48  A    between atoms: _113  and  _114
REMARK   49  A    between atoms: _114  and  _115
REMARK   50  A    between atoms: _120  and  _122
REMARK   51  A    between atoms: _122  and  _123
REMARK   52  A    between atoms: _122  and  _125
REMARK   53  A    between atoms: _125  and  _126
REMARK   54  A    between atoms: _129  and  _131
REMARK   55  A    between atoms: _131  and  _132
REMARK   56  A    between atoms: _131  and  _134
REMARK   57  A    between atoms: _134  and  _135
REMARK   58  A    between atoms: _138  and  _140
REMARK   59  A    between atoms: _140  and  _141
REMARK   60  A    between atoms: _140  and  _143
REMARK   61  A    between atoms: _143  and  _144
REMARK   62  A    between atoms: _154  and  _156
REMARK   63  A    between atoms: _156  and  _157
REMARK   64  A    between atoms: _156  and  _159
REMARK   65  A    between atoms: _159  and  _160
REMARK   66  A    between atoms: _165  and  _167
REMARK   67  A    between atoms: _167  and  _168
REMARK   68  A    between atoms: _167  and  _170
REMARK   69  A    between atoms: _170  and  _171
REMARK   70  A    between atoms: _171  and  _172
REMARK   71  A    between atoms: _175  and  _177
REMARK   72  A    between atoms: _177  and  _178
REMARK   73  A    between atoms: _177  and  _180
REMARK   74  A    between atoms: _180  and  _181
REMARK   75  A    between atoms: _184  and  _186
REMARK   76  A    between atoms: _186  and  _187
REMARK   77  A    between atoms: _186  and  _189
REMARK   78  A    between atoms: _189  and  _190
REMARK   79  A    between atoms: _193  and  _195
REMARK   80  A    between atoms: _195  and  _196
REMARK   81  A    between atoms: _195  and  _198
REMARK   82  A    between atoms: _198  and  _199
REMARK   83  A    between atoms: _202  and  _204
REMARK   84  A    between atoms: _204  and  _205
REMARK   85  A    between atoms: _208  and  _210
REMARK   86  A    between atoms: _210  and  _211
REMARK   87  A    between atoms: _210  and  _213
REMARK   88  A    between atoms: _213  and  _214
REMARK   89  A    between atoms: _216  and  _218
REMARK   90  A    between atoms: _218  and  _219
REMARK   91  A    between atoms: _218  and  _221
REMARK   92  A    between atoms: _221  and  _222
REMARK   93  A    between atoms: _228  and  _230
REMARK   94  A    between atoms: _230  and  _231
REMARK   95  A    between atoms: _230  and  _233
REMARK   96  A    between atoms: _233  and  _234
REMARK   97  A    between atoms: _236  and  _238
REMARK   98  A    between atoms: _238  and  _239
REMARK   99  A    between atoms: _238  and  _241
REMARK  100  A    between atoms: _241  and  _242
REMARK  101  A    between atoms: _247  and  _249
REMARK  102  A    between atoms: _249  and  _250
REMARK  103  A    between atoms: _249  and  _252
REMARK  104  A    between atoms: _252  and  _253
REMARK  105  A    between atoms: _253  and  _254
REMARK  106  A    between atoms: _254  and  _255
REMARK  107  A    between atoms: _264  and  _266
REMARK  108  A    between atoms: _266  and  _267
REMARK  109  A    between atoms: _266  and  _269
REMARK  110  A    between atoms: _269  and  _270
REMARK  111  A    between atoms: _272  and  _274
REMARK  112  A    between atoms: _274  and  _275
REMARK  113  A    between atoms: _274  and  _277
REMARK  114  A    between atoms: _277  and  _278
REMARK  115  A    between atoms: _281  and  _283
REMARK  116  A    between atoms: _283  and  _284
REMARK  117  A    between atoms: _283  and  _286
REMARK  118  A    between atoms: _286  and  _287
REMARK  119  A    between atoms: _290  and  _292
REMARK  120  A    between atoms: _292  and  _293
REMARK  121  A    between atoms: _292  and  _295
REMARK  122  A    between atoms: _295  and  _296
REMARK  123  A    between atoms: _299  and  _301
REMARK  124  A    between atoms: _301  and  _302
REMARK  125  A    between atoms: _305  and  _307
REMARK  126  A    between atoms: _307  and  _308
REMARK  127  A    between atoms: _307  and  _310
REMARK  128  A    between atoms: _310  and  _311
REMARK  129  A    between atoms: _314  and  _316
REMARK  130  A    between atoms: _316  and  _317
REMARK  131  A    between atoms: _319  and  _321
REMARK  132  A    between atoms: _321  and  _322
REMARK  133  A    between atoms: _321  and  _324
REMARK  134  A    between atoms: _324  and  _325
REMARK  135  A    between atoms: _328  and  _330
REMARK  136  A    between atoms: _330  and  _331
REMARK  137  A    between atoms: _330  and  _333
REMARK  138  A    between atoms: _336  and  _338
REMARK  139  A    between atoms: _338  and  _339
REMARK  140  A    between atoms: _342  and  _344
REMARK  141  A    between atoms: _344  and  _345
REMARK  142  A    between atoms: _348  and  _350
REMARK  143  A    between atoms: _350  and  _351
REMARK  144  A    between atoms: _353  and  _355
REMARK  145  A    between atoms: _355  and  _356
REMARK  146  A    between atoms: _355  and  _358
REMARK  147  A    between atoms: _361  and  _363
REMARK  148  A    between atoms: _363  and  _364
REMARK  149  A    between atoms: _366  and  _368
REMARK  150  A    between atoms: _368  and  _369
REMARK  151  A    between atoms: _372  and  _374
REMARK  152  A    between atoms: _374  and  _375
REMARK  153  A    between atoms: _374  and  _377
REMARK  154  A    between atoms: _377  and  _378
REMARK  155  A    between atoms: _381  and  _383
REMARK  156  A    between atoms: _383  and  _384
REMARK  157  A    between atoms: _383  and  _386
REMARK  158  A    between atoms: _386  and  _387
REMARK  159  A    between atoms: _393  and  _395
REMARK  160  A    between atoms: _395  and  _396
REMARK  161  A    between atoms: _395  and  _398
REMARK  162  A    between atoms: _398  and  _399
REMARK  163  A    between atoms: _402  and  _404
REMARK  164  A    between atoms: _404  and  _405
REMARK  165  A    between atoms: _404  and  _407
REMARK  166  A    between atoms: _407  and  _408
REMARK  167  A    between atoms: _408  and  _409
REMARK  168  A    between atoms: _409  and  _410
REMARK  169  A    between atoms: _419  and  _421
REMARK  170  A    between atoms: _421  and  _422
REMARK  171  A    between atoms: _421  and  _424
REMARK  172  A    between atoms: _427  and  _429
REMARK  173  A    between atoms: _429  and  _430
REMARK  174  A    between atoms: _429  and  _432
REMARK  175  A    between atoms: _432  and  _433
REMARK  176  A    between atoms: _436  and  _438
REMARK  177  A    between atoms: _438  and  _439
REMARK  178  A    between atoms: _438  and  _441
REMARK  179  A    between atoms: _441  and  _442
REMARK  180  A    between atoms: _442  and  _443
REMARK  181  A    between atoms: _443  and  _444
REMARK  182  A    between atoms: _453  and  _455
REMARK  183  A    between atoms: _455  and  _456
REMARK  184  A    between atoms: _455  and  _458
REMARK  185  A    between atoms: _458  and  _459
REMARK  186  A    between atoms: _462  and  _464
REMARK  187  A    between atoms: _464  and  _465
REMARK  188  A    between atoms: _467  and  _469
REMARK  189  A    between atoms: _469  and  _470
REMARK  190  A    between atoms: _469  and  _472
REMARK  191  A    between atoms: _472  and  _473
REMARK  192  A    between atoms: _473  and  _474
REMARK  193  A    between atoms: _474  and  _475
REMARK  194  A    between atoms: _475  and  _476
REMARK  195  A    between atoms: _480  and  _482
REMARK  196  A    between atoms: _482  and  _483
REMARK  197  A    between atoms: _482  and  _485
REMARK  198  A    between atoms: _487  and  _489
REMARK  199  A    between atoms: _489  and  _490
REMARK  200  A    between atoms: _489  and  _492
REMARK  201  A    between atoms: _492  and  _493
REMARK  202  A    between atoms: _496  and  _498
REMARK  203  A    between atoms: _498  and  _499
REMARK  204  A    between atoms: _498  and  _501
REMARK  205  A    between atoms: _501  and  _502
REMARK  206  A    between atoms: _502  and  _503
REMARK  207  A    between atoms: _506  and  _508
REMARK  208  A    between atoms: _508  and  _509
REMARK  209  A    between atoms: _508  and  _511
REMARK  210  A    between atoms: _511  and  _512
REMARK  211  A    between atoms: _517  and  _519
REMARK  212  A    between atoms: _519  and  _520
REMARK  213  A    between atoms: _519  and  _522
REMARK  214  A    between atoms: _522  and  _523
REMARK  215  A    between atoms: _526  and  _528
REMARK  216  A    between atoms: _528  and  _529
REMARK  217  A    between atoms: _528  and  _531
REMARK  218  A    between atoms: _531  and  _532
REMARK  219  A    between atoms: _538  and  _540
REMARK  220  A    between atoms: _540  and  _541
REMARK  221  A    between atoms: _540  and  _543
REMARK  222  A    between atoms: _543  and  _544
REMARK  223  A    between atoms: _550  and  _552
REMARK  224  A    between atoms: _552  and  _553
REMARK  225  A    between atoms: _552  and  _555
REMARK  226  A    between atoms: _555  and  _556
REMARK  227  A    between atoms: _559  and  _561
REMARK  228  A    between atoms: _561  and  _562
REMARK  229  A    between atoms: _561  and  _564
REMARK  230  A    between atoms: _564  and  _565
REMARK  231  A    between atoms: _568  and  _570
REMARK  232  A    between atoms: _570  and  _571
REMARK  233  A    between atoms: _570  and  _573
REMARK  234  A    between atoms: _573  and  _574
REMARK                            x       y       z     vdW  Elec       q    Type
REMARK                         _______ _______ _______ _____ _____    ______ ____
ROOT
ATOM      1  CA  VAL A   1      59.671  43.714  39.742  0.00  0.00    +0.133 C 
ENDROOT
BRANCH   1   2
ATOM      2  CB  VAL A   1      60.600  44.123  38.584  0.00  0.00    +0.023 C 
ATOM      3  CG2 VAL A   1      62.055  44.006  39.025  0.00  0.00    +0.002 C 
ATOM      4  CG1 VAL A   1      60.349  43.237  37.378  0.00  0.00    +0.002 C 
ENDBRANCH   1   2
BRANCH   1   5
ATOM      5  N   VAL A   1      58.265  43.849  39.397  0.00  0.00    -0.239 NA
ATOM      6  H   VAL A   1      57.912  44.750  39.017  0.00  0.00    +0.142 HD
ENDBRANCH   1   5
BRANCH   1   7
ATOM      7  C   VAL A   1      59.911  44.645  40.921  0.00  0.00    +0.224 C 
ATOM      8  O   VAL A   1      59.797  45.866  40.790  0.00  0.00    -0.287 OA
ENDBRANCH   1   7
TORSDOF 3
REMARK  Name = ../refined-set-2016/4pp5/4pp5_pocket.pdb
REMARK  234 active torsions:
REMARK  status: ('A' for Active; 'I' for Inactive)
REMARK    1  A    between atoms: _1  and  _3
REMARK    2  A    between atoms: _3  and  _4
REMARK    3  A    between atoms: _3  and  _6
REMARK    4  A    between atoms: _6  and  _7
REMARK    5  A    between atoms: _7  and  _8
REMARK    6  A    between atoms: _12  and  _13
REMARK    7  A    between atoms: _18  and  _20
REMARK    8  A    between atoms: _20  and  _21
REMARK    9  A    between atoms: _20  and  _23
REMARK   10  A    between atoms: _26  and  _28
REMARK   11  A    between atoms: _28  and  _29
REMARK   12  A    between atoms: _28  and  _31
REMARK   13  A    between atoms: _31  and  _32
REMARK   14  A    between atoms: _35  and  _37
REMARK   15  A    between atoms: _37  and  _38
REMARK   16  A    between atoms: _37  and  _40
REMARK   17  A    between atoms: _40  and  _41
REMARK   18  A    between atoms: _46  and  _48
REMARK   19  A    between atoms: _48  and  _49
REMARK   20  A    between atoms: _48  and  _51
REMARK   21  A    between atoms: _51  and  _52
REMARK   22  A    between atoms: _55  and  _57
REMARK   23  A    between atoms: _57  and  _58
REMARK   24  A    between atoms: _57  and  _60
REMARK   25  A    between atoms: _62  and  _64
REMARK   26  A    between atoms: _64  and  _65
REMARK   27  A    between atoms: _64  and  _67
REMARK   28  A    between atoms: _67  and  _68
REMARK   29  A    between atoms: _68  and  _69
REMARK   30  A    between atoms: _74  and  _76
REMARK   31  A    between atoms: _76  and  _77
REMARK   32  A    between atoms: _80  and  _82
REMARK   33  A    between atoms: _82  and  _83
REMARK   34  A    between atoms: _86  and  _88
REMARK   35  A    between atoms: _88  and  _89
REMARK   36  A    between atoms: _88  and  _91
REMARK   37  A    between atoms: _91  and  _92
REMARK   38  A    between atoms: _95  and  _97
REMARK   39  A    between atoms: _97  and  _98
REMARK   40  A    between atoms: _97  and  _100
REMARK   41  A    between atoms: _100  and  _101
REMARK   42  A    between atoms: _101  and  _102
REMARK   43  A    between atoms: _102  and  _103
REMARK   44  A    between atoms: _103  and  _104
REMARK   45  A    between atoms: _108  and  _110
REMARK   46  A    between atoms: _110  and  _111
REMARK   47  A    between atoms: _110  and  _113
REMARK   48  A    between atoms: _113  and  _114
REMARK   49  A    between atoms: _114  and  _115
REMARK   50  A    between atoms: _120  and  _122
REMARK   51  A    between atoms: _122  and  _123
REMARK   52  A    between atoms: _122  and  _125
REMARK   53  A    between atoms: _125  and  _126
REMARK   54  A    between atoms: _129  and  _131
REMARK   55  A    between atoms: _131  and  _132
REMARK   56  A    between atoms: _131  and  _134
REMARK   57  A    between atoms: _134  and  _135
REMARK   58  A    between atoms: _138  and  _140
REMARK   59  A    between atoms: _140  and  _141
REMARK   60  A    between atoms: _140  and  _143
REMARK   61  A    between atoms: _143  and  _144
REMARK   62  A    between atoms: _154  and  _156
REMARK   63  A    between atoms: _156  and  _157
REMARK   64  A    between atoms: _156  and  _159
REMARK   65  A    between atoms: _159  and  _160
REMARK   66  A    between atoms: _165  and  _167
REMARK   67  A    between atoms: _167  and  _168
REMARK   68  A    between atoms: _167  and  _170
REMARK   69  A    between atoms: _170  and  _171
REMARK   70  A    between atoms: _171  and  _172
REMARK   71  A    between atoms: _175  and  _177
REMARK   72  A    between atoms: _177  and  _178
REMARK   73  A    between atoms: _177  and  _180
REMARK   74  A    between atoms: _180  and  _181
REMARK   75  A    between atoms: _184  and  _186
REMARK   76  A    between atoms: _186  and  _187
REMARK   77  A    between atoms: _186  and  _189
REMARK   78  A    between atoms: _189  and  _190
REMARK   79  A    between atoms: _193  and  _195
REMARK   80  A    between atoms: _195  and  _196
REMARK   81  A    between atoms: _195  and  _198
REMARK   82  A    between atoms: _198  and  _199
REMARK   83  A    between atoms: _202  and  _204
REMARK   84  A    between atoms: _204  and  _205
REMARK   85  A    between atoms: _208  and  _210
REMARK   86  A    between atoms: _210  and  _211
REMARK   87  A    between atoms: _210  and  _213
REMARK   88  A    between atoms: _213  and  _214
REMARK   89  A    between atoms: _216  and  _218
REMARK   90  A    between atoms: _218  and  _219
REMARK   91  A    between atoms: _218  and  _221
REMARK   92  A    between atoms: _221  and  _222
REMARK   93  A    between atoms: _228  and  _230
REMARK   94  A    between atoms: _230  and  _231
REMARK   95  A    between atoms: _230  and  _233
REMARK   96  A    between atoms: _233  and  _234
REMARK   97  A    between atoms: _236  and  _238
REMARK   98  A    between atoms: _238  and  _239
REMARK   99  A    between atoms: _238  and  _241
REMARK  100  A    between atoms: _241  and  _242
REMARK  101  A    between atoms: _247  and  _249
REMARK  102  A    between atoms: _249  and  _250
REMARK  103  A    between atoms: _249  and  _252
REMARK  104  A    between atoms: _252  and  _253
REMARK  105  A    between atoms: _253  and  _254
REMARK  106  A    between atoms: _254  and  _255
REMARK  107  A    between atoms: _264  and  _266
REMARK  108  A    between atoms: _266  and  _267
REMARK  109  A    between atoms: _266  and  _269
REMARK  110  A    between atoms: _269  and  _270
REMARK  111  A    between atoms: _272  and  _274
REMARK  112  A    between atoms: _274  and  _275
REMARK  113  A    between atoms: _274  and  _277
REMARK  114  A    between atoms: _277  and  _278
REMARK  115  A    between atoms: _281  and  _283
REMARK  116  A    between atoms: _283  and  _284
REMARK  117  A    between atoms: _283  and  _286
REMARK  118  A    between atoms: _286  and  _287
REMARK  119  A    between atoms: _290  and  _292
REMARK  120  A    between atoms: _292  and  _293
REMARK  121  A    between atoms: _292  and  _295
REMARK  122  A    between atoms: _295  and  _296
REMARK  123  A    between atoms: _299  and  _301
REMARK  124  A    between atoms: _301  and  _302
REMARK  125  A    between atoms: _305  and  _307
REMARK  126  A    between atoms: _307  and  _308
REMARK  127  A    between atoms: _307  and  _310
REMARK  128  A    between atoms: _310  and  _311
REMARK  129  A    between atoms: _314  and  _316
REMARK  130  A    between atoms: _316  and  _317
REMARK  131  A    between atoms: _319  and  _321
REMARK  132  A    between atoms: _321  and  _322
REMARK  133  A    between atoms: _321  and  _324
REMARK  134  A    between atoms: _324  and  _325
REMARK  135  A    between atoms: _328  and  _330
REMARK  136  A    between atoms: _330  and  _331
REMARK  137  A    between atoms: _330  and  _333
REMARK  138  A    between atoms: _336  and  _338
REMARK  139  A    between atoms: _338  and  _339
REMARK  140  A    between atoms: _342  and  _344
REMARK  141  A    between atoms: _344  and  _345
REMARK  142  A    between atoms: _348  and  _350
REMARK  143  A    between atoms: _350  and  _351
REMARK  144  A    between atoms: _353  and  _355
REMARK  145  A    between atoms: _355  and  _356
REMARK  146  A    between atoms: _355  and  _358
REMARK  147  A    between atoms: _361  and  _363
REMARK  148  A    between atoms: _363  and  _364
REMARK  149  A    between atoms: _366  and  _368
REMARK  150  A    between atoms: _368  and  _369
REMARK  151  A    between atoms: _372  and  _374
REMARK  152  A    between atoms: _374  and  _375
REMARK  153  A    between atoms: _374  and  _377
REMARK  154  A    between atoms: _377  and  _378
REMARK  155  A    between atoms: _381  and  _383
REMARK  156  A    between atoms: _383  and  _384
REMARK  157  A    between atoms: _383  and  _386
REMARK  158  A    between atoms: _386  and  _387
REMARK  159  A    between atoms: _393  and  _395
REMARK  160  A    between atoms: _395  and  _396
REMARK  161  A    between atoms: _395  and  _398
REMARK  162  A    between atoms: _398  and  _399
REMARK  163  A    between atoms: _402  and  _404
REMARK  164  A    between atoms: _404  and  _405
REMARK  165  A    between atoms: _404  and  _407
REMARK  166  A    between atoms: _407  and  _408
REMARK  167  A    between atoms: _408  and  _409
REMARK  168  A    between atoms: _409  and  _410
REMARK  169  A    between atoms: _419  and  _421
REMARK  170  A    between atoms: _421  and  _422
REMARK  171  A    between atoms: _421  and  _424
REMARK  172  A    between atoms: _427  and  _429
REMARK  173  A    between atoms: _429  and  _430
REMARK  174  A    between atoms: _429  and  _432
REMARK  175  A    between atoms: _432  and  _433
REMARK  176  A    between atoms: _436  and  _438
REMARK  177  A    between atoms: _438  and  _439
REMARK  178  A    between atoms: _438  and  _441
REMARK  179  A    between atoms: _441  and  _442
REMARK  180  A    between atoms: _442  and  _443
REMARK  181  A    between atoms: _443  and  _444
REMARK  182  A    between atoms: _453  and  _455
REMARK  183  A    between atoms: _455  and  _456
REMARK  184  A    between atoms: _455  and  _458
REMARK  185  A    between atoms: _458  and  _459
REMARK  186  A    between atoms: _462  and  _464
REMARK  187  A    between atoms: _464  and  _465
REMARK  188  A    between atoms: _467  and  _469
REMARK  189  A    between atoms: _469  and  _470
REMARK  190  A    between atoms: _469  and  _472
REMARK  191  A    between atoms: _472  and  _473
REMARK  192  A    between atoms: _473  and  _474
REMARK  193  A    between atoms: _474  and  _475
REMARK  194  A    between atoms: _475  and  _476
REMARK  195  A    between atoms: _480  and  _482
REMARK  196  A    between atoms: _482  and  _483
REMARK  197  A    between atoms: _482  and  _485
REMARK  198  A    between atoms: _487  and  _489
REMARK  199  A    between atoms: _489  and  _490
REMARK  200  A    between atoms: _489  and  _492
REMARK  201  A    between atoms: _492  and  _493
REMARK  202  A    between atoms: _496  and  _498
REMARK  203  A    between atoms: _498  and  _499
REMARK  204  A    between atoms: _498  and  _501
REMARK  205  A    between atoms: _501  and  _502
REMARK  206  A    between atoms: _502  and  _503
REMARK  207  A    between atoms: _506  and  _508
REMARK  208  A    between atoms: _508  and  _509
REMARK  209  A    between atoms: _508  and  _511
REMARK  210  A    between atoms: _511  and  _512
REMARK  211  A    between atoms: _517  and  _519
REMARK  212  A    between atoms: _519  and  _520
REMARK  213  A    between atoms: _519  and  _522
REMARK  214  A    between atoms: _522  and  _523
REMARK  215  A    between atoms: _526  and  _528
REMARK  216  A    between atoms: _528  and  _529
REMARK  217  A    between atoms: _528  and  _531
REMARK  218  A    between atoms: _531  and  _532
REMARK  219  A    between atoms: _538  and  _540
REMARK  220  A    between atoms: _540  and  _541
REMARK  221  A    between atoms: _540  and  _543
REMARK  222  A    between atoms: _543  and  _544
REMARK  223  A    between atoms: _550  and  _552
REMARK  224  A    between atoms: _552  and  _553
REMARK  225  A    between atoms: _552  and  _555
REMARK  226  A    between atoms: _555  and  _556
REMARK  227  A    between atoms: _559  and  _561
REMARK  228  A    between atoms: _561  and  _562
REMARK  229  A    between atoms: _561  and  _564
REMARK  230  A    between atoms: _564  and  _565
REMARK  231  A    between atoms: _568  and  _570
REMARK  232  A    between atoms: _570  and  _571
REMARK  233  A    between atoms: _570  and  _573
REMARK  234  A    between atoms: _573  and  _574
REMARK                            x       y       z     vdW  Elec       q    Type
REMARK                         _______ _______ _______ _____ _____    ______ ____
ROOT
ATOM      1  CA  ALA A   1      66.431  44.262  40.970  0.00  0.00    +0.133 C 
ATOM      2  CB  ALA A   1      65.963  45.661  40.585  0.00  0.00    +0.027 C 
ENDROOT
BRANCH   1   3
ATOM      3  N   ALA A   1      65.511  43.667  41.926  0.00  0.00    -0.239 NA
ATOM      4  H   ALA A   1      64.697  44.217  42.268  0.00  0.00    +0.142 HD
ENDBRANCH   1   3
BRANCH   1   5
ATOM      5  C   ALA A   1      67.826  44.332  41.585  0.00  0.00    +0.224 C 
ATOM      6  O   ALA A   1      68.819  44.011  40.938  0.00  0.00    -0.287 OA
ENDBRANCH   1   5
TORSDOF 2
REMARK  Name = ../refined-set-2016/4pp5/4pp5_pocket.pdb
REMARK  234 active torsions:
REMARK  status: ('A' for Active; 'I' for Inactive)
REMARK    1  A    between atoms: _1  and  _3
REMARK    2  A    between atoms: _3  and  _4
REMARK    3  A    between atoms: _3  and  _6
REMARK    4  A    between atoms: _6  and  _7
REMARK    5  A    between atoms: _7  and  _8
REMARK    6  A    between atoms: _12  and  _13
REMARK    7  A    between atoms: _18  and  _20
REMARK    8  A    between atoms: _20  and  _21
REMARK    9  A    between atoms: _20  and  _23
REMARK   10  A    between atoms: _26  and  _28
REMARK   11  A    between atoms: _28  and  _29
REMARK   12  A    between atoms: _28  and  _31
REMARK   13  A    between atoms: _31  and  _32
REMARK   14  A    between atoms: _35  and  _37
REMARK   15  A    between atoms: _37  and  _38
REMARK   16  A    between atoms: _37  and  _40
REMARK   17  A    between atoms: _40  and  _41
REMARK   18  A    between atoms: _46  and  _48
REMARK   19  A    between atoms: _48  and  _49
REMARK   20  A    between atoms: _48  and  _51
REMARK   21  A    between atoms: _51  and  _52
REMARK   22  A    between atoms: _55  and  _57
REMARK   23  A    between atoms: _57  and  _58
REMARK   24  A    between atoms: _57  and  _60
REMARK   25  A    between atoms: _62  and  _64
REMARK   26  A    between atoms: _64  and  _65
REMARK   27  A    between atoms: _64  and  _67
REMARK   28  A    between atoms: _67  and  _68
REMARK   29  A    between atoms: _68  and  _69
REMARK   30  A    between atoms: _74  and  _76
REMARK   31  A    between atoms: _76  and  _77
REMARK   32  A    between atoms: _80  and  _82
REMARK   33  A    between atoms: _82  and  _83
REMARK   34  A    between atoms: _86  and  _88
REMARK   35  A    between atoms: _88  and  _89
REMARK   36  A    between atoms: _88  and  _91
REMARK   37  A    between atoms: _91  and  _92
REMARK   38  A    between atoms: _95  and  _97
REMARK   39  A    between atoms: _97  and  _98
REMARK   40  A    between atoms: _97  and  _100
REMARK   41  A    between atoms: _100  and  _101
REMARK   42  A    between atoms: _101  and  _102
REMARK   43  A    between atoms: _102  and  _103
REMARK   44  A    between atoms: _103  and  _104
REMARK   45  A    between atoms: _108  and  _110
REMARK   46  A    between atoms: _110  and  _111
REMARK   47  A    between atoms: _110  and  _113
REMARK   48  A    between atoms: _113  and  _114
REMARK   49  A    between atoms: _114  and  _115
REMARK   50  A    between atoms: _120  and  _122
REMARK   51  A    between atoms: _122  and  _123
REMARK   52  A    between atoms: _122  and  _125
REMARK   53  A    between atoms: _125  and  _126
REMARK   54  A    between atoms: _129  and  _131
REMARK   55  A    between atoms: _131  and  _132
REMARK   56  A    between atoms: _131  and  _134
REMARK   57  A    between atoms: _134  and  _135
REMARK   58  A    between atoms: _138  and  _140
REMARK   59  A    between atoms: _140  and  _141
REMARK   60  A    between atoms: _140  and  _143
REMARK   61  A    between atoms: _143  and  _144
REMARK   62  A    between atoms: _154  and  _156
REMARK   63  A    between atoms: _156  and  _157
REMARK   64  A    between atoms: _156  and  _159
REMARK   65  A    between atoms: _159  and  _160
REMARK   66  A    between atoms: _165  and  _167
REMARK   67  A    between atoms: _167  and  _168
REMARK   68  A    between atoms: _167  and  _170
REMARK   69  A    between atoms: _170  and  _171
REMARK   70  A    between atoms: _171  and  _172
REMARK   71  A    between atoms: _175  and  _177
REMARK   72  A    between atoms: _177  and  _178
REMARK   73  A    between atoms: _177  and  _180
REMARK   74  A    between atoms: _180  and  _181
REMARK   75  A    between atoms: _184  and  _186
REMARK   76  A    between atoms: _186  and  _187
REMARK   77  A    between atoms: _186  and  _189
REMARK   78  A    between atoms: _189  and  _190
REMARK   79  A    between atoms: _193  and  _195
REMARK   80  A    between atoms: _195  and  _196
REMARK   81  A    between atoms: _195  and  _198
REMARK   82  A    between atoms: _198  and  _199
REMARK   83  A    between atoms: _202  and  _204
REMARK   84  A    between atoms: _204  and  _205
REMARK   85  A    between atoms: _208  and  _210
REMARK   86  A    between atoms: _210  and  _211
REMARK   87  A    between atoms: _210  and  _213
REMARK   88  A    between atoms: _213  and  _214
REMARK   89  A    between atoms: _216  and  _218
REMARK   90  A    between atoms: _218  and  _219
REMARK   91  A    between atoms: _218  and  _221
REMARK   92  A    between atoms: _221  and  _222
REMARK   93  A    between atoms: _228  and  _230
REMARK   94  A    between atoms: _230  and  _231
REMARK   95  A    between atoms: _230  and  _233
REMARK   96  A    between atoms: _233  and  _234
REMARK   97  A    between atoms: _236  and  _238
REMARK   98  A    between atoms: _238  and  _239
REMARK   99  A    between atoms: _238  and  _241
REMARK  100  A    between atoms: _241  and  _242
REMARK  101  A    between atoms: _247  and  _249
REMARK  102  A    between atoms: _249  and  _250
REMARK  103  A    between atoms: _249  and  _252
REMARK  104  A    between atoms: _252  and  _253
REMARK  105  A    between atoms: _253  and  _254
REMARK  106  A    between atoms: _254  and  _255
REMARK  107  A    between atoms: _264  and  _266
REMARK  108  A    between atoms: _266  and  _267
REMARK  109  A    between atoms: _266  and  _269
REMARK  110  A    between atoms: _269  and  _270
REMARK  111  A    between atoms: _272  and  _274
REMARK  112  A    between atoms: _274  and  _275
REMARK  113  A    between atoms: _274  and  _277
REMARK  114  A    between atoms: _277  and  _278
REMARK  115  A    between atoms: _281  and  _283
REMARK  116  A    between atoms: _283  and  _284
REMARK  117  A    between atoms: _283  and  _286
REMARK  118  A    between atoms: _286  and  _287
REMARK  119  A    between atoms: _290  and  _292
REMARK  120  A    between atoms: _292  and  _293
REMARK  121  A    between atoms: _292  and  _295
REMARK  122  A    between atoms: _295  and  _296
REMARK  123  A    between atoms: _299  and  _301
REMARK  124  A    between atoms: _301  and  _302
REMARK  125  A    between atoms: _305  and  _307
REMARK  126  A    between atoms: _307  and  _308
REMARK  127  A    between atoms: _307  and  _310
REMARK  128  A    between atoms: _310  and  _311
REMARK  129  A    between atoms: _314  and  _316
REMARK  130  A    between atoms: _316  and  _317
REMARK  131  A    between atoms: _319  and  _321
REMARK  132  A    between atoms: _321  and  _322
REMARK  133  A    between atoms: _321  and  _324
REMARK  134  A    between atoms: _324  and  _325
REMARK  135  A    between atoms: _328  and  _330
REMARK  136  A    between atoms: _330  and  _331
REMARK  137  A    between atoms: _330  and  _333
REMARK  138  A    between atoms: _336  and  _338
REMARK  139  A    between atoms: _338  and  _339
REMARK  140  A    between atoms: _342  and  _344
REMARK  141  A    between atoms: _344  and  _345
REMARK  142  A    between atoms: _348  and  _350
REMARK  143  A    between atoms: _350  and  _351
REMARK  144  A    between atoms: _353  and  _355
REMARK  145  A    between atoms: _355  and  _356
REMARK  146  A    between atoms: _355  and  _358
REMARK  147  A    between atoms: _361  and  _363
REMARK  148  A    between atoms: _363  and  _364
REMARK  149  A    between atoms: _366  and  _368
REMARK  150  A    between atoms: _368  and  _369
REMARK  151  A    between atoms: _372  and  _374
REMARK  152  A    between atoms: _374  and  _375
REMARK  153  A    between atoms: _374  and  _377
REMARK  154  A    between atoms: _377  and  _378
REMARK  155  A    between atoms: _381  and  _383
REMARK  156  A    between atoms: _383  and  _384
REMARK  157  A    between atoms: _383  and  _386
REMARK  158  A    between atoms: _386  and  _387
REMARK  159  A    between atoms: _393  and  _395
REMARK  160  A    between atoms: _395  and  _396
REMARK  161  A    between atoms: _395  and  _398
REMARK  162  A    between atoms: _398  and  _399
REMARK  163  A    between atoms: _402  and  _404
REMARK  164  A    between atoms: _404  and  _405
REMARK  165  A    between atoms: _404  and  _407
REMARK  166  A    between atoms: _407  and  _408
REMARK  167  A    between atoms: _408  and  _409
REMARK  168  A    between atoms: _409  and  _410
REMARK  169  A    between atoms: _419  and  _421
REMARK  170  A    between atoms: _421  and  _422
REMARK  171  A    between atoms: _421  and  _424
REMARK  172  A    between atoms: _427  and  _429
REMARK  173  A    between atoms: _429  and  _430
REMARK  174  A    between atoms: _429  and  _432
REMARK  175  A    between atoms: _432  and  _433
REMARK  176  A    between atoms: _436  and  _438
REMARK  177  A    between atoms: _438  and  _439
REMARK  178  A    between atoms: _438  and  _441
REMARK  179  A    between atoms: _441  and  _442
REMARK  180  A    between atoms: _442  and  _443
REMARK  181  A    between atoms: _443  and  _444
REMARK  182  A    between atoms: _453  and  _455
REMARK  183  A    between atoms: _455  and  _456
REMARK  184  A    between atoms: _455  and  _458
REMARK  185  A    between atoms: _458  and  _459
REMARK  186  A    between atoms: _462  and  _464
REMARK  187  A    between atoms: _464  and  _465
REMARK  188  A    between atoms: _467  and  _469
REMARK  189  A    between atoms: _469  and  _470
REMARK  190  A    between atoms: _469  and  _472
REMARK  191  A    between atoms: _472  and  _473
REMARK  192  A    between atoms: _473  and  _474
REMARK  193  A    between atoms: _474  and  _475
REMARK  194  A    between atoms: _475  and  _476
REMARK  195  A    between atoms: _480  and  _482
REMARK  196  A    between atoms: _482  and  _483
REMARK  197  A    between atoms: _482  and  _485
REMARK  198  A    between atoms: _487  and  _489
REMARK  199  A    between atoms: _489  and  _490
REMARK  200  A    between atoms: _489  and  _492
REMARK  201  A    between atoms: _492  and  _493
REMARK  202  A    between atoms: _496  and  _498
REMARK  203  A    between atoms: _498  and  _499
REMARK  204  A    between atoms: _498  and  _501
REMARK  205  A    between atoms: _501  and  _502
REMARK  206  A    between atoms: _502  and  _503
REMARK  207  A    between atoms: _506  and  _508
REMARK  208  A    between atoms: _508  and  _509
REMARK  209  A    between atoms: _508  and  _511
REMARK  210  A    between atoms: _511  and  _512
REMARK  211  A    between atoms: _517  and  _519
REMARK  212  A    between atoms: _519  and  _520
REMARK  213  A    between atoms: _519  and  _522
REMARK  214  A    between atoms: _522  and  _523
REMARK  215  A    between atoms: _526  and  _528
REMARK  216  A    between atoms: _528  and  _529
REMARK  217  A    between atoms: _528  and  _531
REMARK  218  A    between atoms: _531  and  _532
REMARK  219  A    between atoms: _538  and  _540
REMARK  220  A    between atoms: _540  and  _541
REMARK  221  A    between atoms: _540  and  _543
REMARK  222  A    between atoms: _543  and  _544
REMARK  223  A    between atoms: _550  and  _552
REMARK  224  A    between atoms: _552  and  _553
REMARK  225  A    between atoms: _552  and  _555
REMARK  226  A    between atoms: _555  and  _556
REMARK  227  A    between atoms: _559  and  _561
REMARK  228  A    between atoms: _561  and  _562
REMARK  229  A    between atoms: _561  and  _564
REMARK  230  A    between atoms: _564  and  _565
REMARK  231  A    between atoms: _568  and  _570
REMARK  232  A    between atoms: _570  and  _571
REMARK  233  A    between atoms: _570  and  _573
REMARK  234  A    between atoms: _573  and  _574
REMARK                            x       y       z     vdW  Elec       q    Type
REMARK                         _______ _______ _______ _____ _____    ______ ____
ROOT
ATOM      1  CA  PHE A   7      66.516  50.404  38.700  0.00  0.00    +0.153 C 
ENDROOT
BRANCH   1   3
ATOM      2  C   ILE A   6      68.269  51.636  37.536  0.00  0.00    +0.241 C 
ATOM      3  N   PHE A   7      67.896  50.565  38.238  0.00  0.00    -0.297 N 
ATOM      4  H   PHE A   7      68.598  49.831  38.461  0.00  0.00    +0.150 HD
ATOM      5  O   ILE A   6      67.488  52.545  37.249  0.00  0.00    -0.273 OA
BRANCH   2   6
ATOM      6  CA  ILE A   6      69.741  51.711  37.113  0.00  0.00    +0.149 C 
BRANCH   6   9
ATOM      7  C   ALA A   5      70.680  51.820  39.334  0.00  0.00    +0.241 C 
ATOM      8  O   ALA A   5      70.024  52.838  39.569  0.00  0.00    -0.273 OA
ATOM      9  N   ILE A   6      70.611  51.189  38.165  0.00  0.00    -0.297 N 
ATOM     10  H   ILE A   6      71.173  50.329  38.001  0.00  0.00    +0.150 HD
BRANCH   7  11
ATOM     11  CA  ALA A   5      71.609  51.232  40.401  0.00  0.00    +0.149 C 
ATOM     12  CB  ALA A   5      73.069  51.349  39.959  0.00  0.00    +0.031 C 
BRANCH  11  15
ATOM     13  C   GLY A   4      70.088  49.494  41.157  0.00  0.00    +0.243 C 
ATOM     14  O   GLY A   4      69.182  50.311  41.343  0.00  0.00    -0.273 OA
ATOM     15  N   ALA A   5      71.289  49.844  40.708  0.00  0.00    -0.297 N 
ATOM     16  H   ALA A   5      72.015  49.112  40.573  0.00  0.00    +0.150 HD
BRANCH  13  17
ATOM     17  CA  GLY A   4      69.869  48.019  41.457  0.00  0.00    +0.176 C 
BRANCH  17  19
ATOM     18  C   VAL A   3      70.152  46.977  39.292  0.00  0.00    +0.241 C 
ATOM     19  N   GLY A   4      70.530  47.080  40.563  0.00  0.00    -0.295 N 
ATOM     20  H   GLY A   4      71.304  46.485  40.921  0.00  0.00    +0.150 HD
ATOM     21  O   VAL A   3      69.277  47.683  38.796  0.00  0.00    -0.273 OA
BRANCH  18  22
ATOM     22  CA  VAL A   3      70.893  45.947  38.445  0.00  0.00    +0.149 C 
BRANCH  22  24
ATOM     23  C   GLY A   2      72.574  44.432  39.316  0.00  0.00    +0.243 C 
ATOM     24  N   VAL A   3      71.293  44.767  39.210  0.00  0.00    -0.297 N 
ATOM     25  H   VAL A   3      70.568  44.185  39.675  0.00  0.00    +0.150 HD
ATOM     26  O   GLY A   2      73.466  45.084  38.789  0.00  0.00    -0.273 OA
BRANCH  23  27
ATOM     27  CA  GLY A   2      72.921  43.193  40.127  0.00  0.00    +0.176 C 
BRANCH  27  29
ATOM     28  C   ALA A   1      71.276  41.449  39.841  0.00  0.00    +0.238 C 
ATOM     29  N   GLY A   2      71.800  42.402  40.602  0.00  0.00    -0.296 N 
ATOM     30  H   GLY A   2      71.404  42.584  41.546  0.00  0.00    +0.150 HD
ATOM     31  O   ALA A   1      71.685  41.197  38.713  0.00  0.00    -0.274 OA
BRANCH  28  32
ATOM     32  CA  ALA A   1      70.114  40.664  40.437  0.00  0.00    +0.145 C 
ATOM     33  CB  ALA A   1      68.903  40.738  39.502  0.00  0.00    +0.028 C 
BRANCH  32  34
ATOM     34  N   ALA A   1      69.756  41.159  41.760  0.00  0.00    -0.238 NA
ATOM     35  H   ALA A   1      69.216  42.044  41.838  0.00  0.00    +0.142 HD
ENDBRANCH  32  34
ENDBRANCH  28  32
ENDBRANCH  27  29
ENDBRANCH  23  27
ENDBRANCH  22  24
BRANCH  22  36
ATOM     36  CB  VAL A   3      70.004  45.561  37.240  0.00  0.00    +0.027 C 
ATOM     37  CG2 VAL A   3      68.777  44.798  37.714  0.00  0.00    +0.002 C 
ATOM     38  CG1 VAL A   3      70.809  44.714  36.256  0.00  0.00    +0.002 C 
ENDBRANCH  22  36
ENDBRANCH  18  22
ENDBRANCH  17  19
ENDBRANCH  13  17
ENDBRANCH  11  15
ENDBRANCH   7  11
ENDBRANCH   6   9
BRANCH   6  39
ATOM     39  CB  ILE A   6      69.957  50.963  35.755  0.00  0.00    +0.027 C 
ATOM     40  CG2 ILE A   6      69.520  49.508  35.860  0.00  0.00    +0.002 C 
BRANCH  39  41
ATOM     41  CG1 ILE A   6      69.165  51.660  34.641  0.00  0.00    +0.002 C 
ATOM     42  CD1 ILE A   6      69.573  53.098  34.403  0.00  0.00    +0.000 C 
ENDBRANCH  39  41
ENDBRANCH   6  39
ENDBRANCH   2   6
ENDBRANCH   1   3
BRANCH   1  43
ATOM     43  C   PHE A   7      66.122  51.584  39.591  0.00  0.00    +0.241 C 
ATOM     44  N   ASP A   8      67.012  51.949  40.513  0.00  0.00    -0.297 N 
ATOM     45  H   ASP A   8      67.905  51.422  40.593  0.00  0.00    +0.150 HD
ATOM     46  O   PHE A   7      65.027  52.143  39.452  0.00  0.00    -0.273 OA
BRANCH  44  47
ATOM     47  CA  ASP A   8      66.762  53.073  41.415  0.00  0.00    +0.160 C 
BRANCH  47  48
ATOM     48  C   ASP A   8      66.618  54.398  40.659  0.00  0.00    +0.241 C 
ATOM     49  O   ASP A   8      65.844  55.262  41.068  0.00  0.00    -0.273 OA
ATOM     50  N   ARG A   9      67.353  54.563  39.560  0.00  0.00    -0.297 N 
ATOM     51  H   ARG A   9      68.010  53.815  39.259  0.00  0.00    +0.150 HD
BRANCH  50  52
ATOM     52  CA  ARG A   9      67.240  55.794  38.773  0.00  0.00    +0.149 C 
BRANCH  52  53
ATOM     53  C   ARG A   9      65.839  55.873  38.167  0.00  0.00    +0.241 C 
ATOM     54  O   ARG A   9      65.215  56.933  38.169  0.00  0.00    -0.273 OA
ATOM     55  N   VAL A  10      65.339  54.752  37.654  0.00  0.00    -0.297 N 
ATOM     56  H   VAL A  10      65.910  53.883  37.664  0.00  0.00    +0.150 HD
BRANCH  55  57
ATOM     57  CA  VAL A  10      63.992  54.727  37.075  0.00  0.00    +0.149 C 
BRANCH  57  58
ATOM     58  C   VAL A  10      62.957  55.119  38.131  0.00  0.00    +0.241 C 
ATOM     59  N   LEU A  11      63.077  54.545  39.326  0.00  0.00    -0.298 N 
ATOM     60  H   LEU A  11      63.851  53.871  39.496  0.00  0.00    +0.150 HD
ATOM     61  O   VAL A  10      62.074  55.941  37.872  0.00  0.00    -0.273 OA
BRANCH  59  62
ATOM     62  CA  LEU A  11      62.136  54.848  40.404  0.00  0.00    +0.137 C 
BRANCH  62  63
ATOM     63  C   LEU A  11      62.199  56.288  40.888  0.00  0.00    +0.227 C 
ATOM     64  O   LEU A  11      61.170  56.924  41.117  0.00  0.00    -0.286 OA
ENDBRANCH  62  63
BRANCH  62  65
ATOM     65  CB  LEU A  11      62.382  53.930  41.605  0.00  0.00    +0.028 C 
BRANCH  65  66
ATOM     66  CG  LEU A  11      62.131  52.441  41.398  0.00  0.00    +0.002 C 
ATOM     67  CD2 LEU A  11      62.352  51.705  42.722  0.00  0.00    +0.000 C 
ATOM     68  CD1 LEU A  11      60.706  52.228  40.887  0.00  0.00    +0.000 C 
ENDBRANCH  65  66
ENDBRANCH  62  65
ENDBRANCH  59  62
ENDBRANCH  57  58
BRANCH  57  69
ATOM     69  CB  VAL A  10      63.629  53.330  36.522  0.00  0.00    +0.027 C 
ATOM     70  CG2 VAL A  10      62.173  53.315  36.049  0.00  0.00    +0.002 C 
ATOM     71  CG1 VAL A  10      64.552  52.973  35.367  0.00  0.00    +0.002 C 
ENDBRANCH  57  69
ENDBRANCH  55  57
ENDBRANCH  52  53
BRANCH  52  72
ATOM     72  CB  ARG A   9      68.293  55.841  37.656  0.00  0.00    +0.033 C 
BRANCH  72  73
ATOM     73  CG  ARG A   9      69.721  56.116  38.133  0.00  0.00    +0.045 C 
BRANCH  73  74
ATOM     74  CD  ARG A   9      70.620  56.556  36.974  0.00  0.00    +0.174 C 
BRANCH  74  75
ATOM     75  NE  ARG A   9      70.121  57.781  36.344  0.00  0.00    -0.265 N 
ATOM     76  HE  ARG A   9      69.256  58.207  36.735  0.00  0.00    +0.259 HD
ATOM     77  CZ  ARG A   9      70.694  58.389  35.307  0.00  0.00    +0.342 C 
ATOM     78  NH2 ARG A   9      70.152  59.490  34.793  0.00  0.00    -0.292 N 
ATOM     79 HH21 ARG A   9      69.278  59.879  35.201  0.00  0.00    +0.255 HD
ATOM     80 HH22 ARG A   9      70.602  59.962  33.983  0.00  0.00    +0.255 HD
ATOM     81  NH1 ARG A   9      71.801  57.892  34.771  0.00  0.00    -0.292 N 
ATOM     82 HH11 ARG A   9      72.224  57.025  35.161  0.00  0.00    +0.255 HD
ATOM     83 HH12 ARG A   9      72.246  58.369  33.961  0.00  0.00    +0.255 HD
ENDBRANCH  74  75
ENDBRANCH  73  74
ENDBRANCH  72  73
ENDBRANCH  52  72
ENDBRANCH  50  52
ENDBRANCH  47  48
BRANCH  47  84
ATOM     84  CB  ASP A   8      67.880  53.184  42.460  0.00  0.00    +0.143 C 
BRANCH  84  85
ATOM     85  CG  ASP A   8      67.743  52.152  43.571  0.00  0.00    +0.367 C 
ATOM     86  OD2 ASP A   8      68.634  52.096  44.443  0.00  0.00    -0.246 OA
ATOM     87  OD1 ASP A   8      66.741  51.401  43.572  0.00  0.00    -0.246 OA
ENDBRANCH  84  85
ENDBRANCH  47  84
ENDBRANCH  44  47
ENDBRANCH   1  43
BRANCH   1  88
ATOM     88  CB  PHE A   7      66.361  49.104  39.498  0.00  0.00    +0.055 C 
BRANCH  88  89
ATOM     89  CG  PHE A   7      64.936  48.644  39.631  0.00  0.00    -0.020 A 
ATOM     90  CD2 PHE A   7      64.206  48.920  40.779  0.00  0.00    -0.004 A 
ATOM     91  CE2 PHE A   7      62.881  48.499  40.905  0.00  0.00    -0.000 A 
ATOM     92  CZ  PHE A   7      62.274  47.791  39.874  0.00  0.00    -0.000 A 
ATOM     93  CE1 PHE A   7      62.998  47.508  38.715  0.00  0.00    -0.000 A 
ATOM     94  CD1 PHE A   7      64.323  47.936  38.601  0.00  0.00    -0.004 A 
ENDBRANCH  88  89
ENDBRANCH   1  88
TORSDOF 36
REMARK  Name = ../refined-set-2016/4pp5/4pp5_pocket.pdb
REMARK  234 active torsions:
REMARK  status: ('A' for Active; 'I' for Inactive)
REMARK    1  A    between atoms: _1  and  _3
REMARK    2  A    between atoms: _3  and  _4
REMARK    3  A    between atoms: _3  and  _6
REMARK    4  A    between atoms: _6  and  _7
REMARK    5  A    between atoms: _7  and  _8
REMARK    6  A    between atoms: _12  and  _13
REMARK    7  A    between atoms: _18  and  _20
REMARK    8  A    between atoms: _20  and  _21
REMARK    9  A    between atoms: _20  and  _23
REMARK   10  A    between atoms: _26  and  _28
REMARK   11  A    between atoms: _28  and  _29
REMARK   12  A    between atoms: _28  and  _31
REMARK   13  A    between atoms: _31  and  _32
REMARK   14  A    between atoms: _35  and  _37
REMARK   15  A    between atoms: _37  and  _38
REMARK   16  A    between atoms: _37  and  _40
REMARK   17  A    between atoms: _40  and  _41
REMARK   18  A    between atoms: _46  and  _48
REMARK   19  A    between atoms: _48  and  _49
REMARK   20  A    between atoms: _48  and  _51
REMARK   21  A    between atoms: _51  and  _52
REMARK   22  A    between atoms: _55  and  _57
REMARK   23  A    between atoms: _57  and  _58
REMARK   24  A    between atoms: _57  and  _60
REMARK   25  A    between atoms: _62  and  _64
REMARK   26  A    between atoms: _64  and  _65
REMARK   27  A    between atoms: _64  and  _67
REMARK   28  A    between atoms: _67  and  _68
REMARK   29  A    between atoms: _68  and  _69
REMARK   30  A    between atoms: _74  and  _76
REMARK   31  A    between atoms: _76  and  _77
REMARK   32  A    between atoms: _80  and  _82
REMARK   33  A    between atoms: _82  and  _83
REMARK   34  A    between atoms: _86  and  _88
REMARK   35  A    between atoms: _88  and  _89
REMARK   36  A    between atoms: _88  and  _91
REMARK   37  A    between atoms: _91  and  _92
REMARK   38  A    between atoms: _95  and  _97
REMARK   39  A    between atoms: _97  and  _98
REMARK   40  A    between atoms: _97  and  _100
REMARK   41  A    between atoms: _100  and  _101
REMARK   42  A    between atoms: _101  and  _102
REMARK   43  A    between atoms: _102  and  _103
REMARK   44  A    between atoms: _103  and  _104
REMARK   45  A    between atoms: _108  and  _110
REMARK   46  A    between atoms: _110  and  _111
REMARK   47  A    between atoms: _110  and  _113
REMARK   48  A    between atoms: _113  and  _114
REMARK   49  A    between atoms: _114  and  _115
REMARK   50  A    between atoms: _120  and  _122
REMARK   51  A    between atoms: _122  and  _123
REMARK   52  A    between atoms: _122  and  _125
REMARK   53  A    between atoms: _125  and  _126
REMARK   54  A    between atoms: _129  and  _131
REMARK   55  A    between atoms: _131  and  _132
REMARK   56  A    between atoms: _131  and  _134
REMARK   57  A    between atoms: _134  and  _135
REMARK   58  A    between atoms: _138  and  _140
REMARK   59  A    between atoms: _140  and  _141
REMARK   60  A    between atoms: _140  and  _143
REMARK   61  A    between atoms: _143  and  _144
REMARK   62  A    between atoms: _154  and  _156
REMARK   63  A    between atoms: _156  and  _157
REMARK   64  A    between atoms: _156  and  _159
REMARK   65  A    between atoms: _159  and  _160
REMARK   66  A    between atoms: _165  and  _167
REMARK   67  A    between atoms: _167  and  _168
REMARK   68  A    between atoms: _167  and  _170
REMARK   69  A    between atoms: _170  and  _171
REMARK   70  A    between atoms: _171  and  _172
REMARK   71  A    between atoms: _175  and  _177
REMARK   72  A    between atoms: _177  and  _178
REMARK   73  A    between atoms: _177  and  _180
REMARK   74  A    between atoms: _180  and  _181
REMARK   75  A    between atoms: _184  and  _186
REMARK   76  A    between atoms: _186  and  _187
REMARK   77  A    between atoms: _186  and  _189
REMARK   78  A    between atoms: _189  and  _190
REMARK   79  A    between atoms: _193  and  _195
REMARK   80  A    between atoms: _195  and  _196
REMARK   81  A    between atoms: _195  and  _198
REMARK   82  A    between atoms: _198  and  _199
REMARK   83  A    between atoms: _202  and  _204
REMARK   84  A    between atoms: _204  and  _205
REMARK   85  A    between atoms: _208  and  _210
REMARK   86  A    between atoms: _210  and  _211
REMARK   87  A    between atoms: _210  and  _213
REMARK   88  A    between atoms: _213  and  _214
REMARK   89  A    between atoms: _216  and  _218
REMARK   90  A    between atoms: _218  and  _219
REMARK   91  A    between atoms: _218  and  _221
REMARK   92  A    between atoms: _221  and  _222
REMARK   93  A    between atoms: _228  and  _230
REMARK   94  A    between atoms: _230  and  _231
REMARK   95  A    between atoms: _230  and  _233
REMARK   96  A    between atoms: _233  and  _234
REMARK   97  A    between atoms: _236  and  _238
REMARK   98  A    between atoms: _238  and  _239
REMARK   99  A    between atoms: _238  and  _241
REMARK  100  A    between atoms: _241  and  _242
REMARK  101  A    between atoms: _247  and  _249
REMARK  102  A    between atoms: _249  and  _250
REMARK  103  A    between atoms: _249  and  _252
REMARK  104  A    between atoms: _252  and  _253
REMARK  105  A    between atoms: _253  and  _254
REMARK  106  A    between atoms: _254  and  _255
REMARK  107  A    between atoms: _264  and  _266
REMARK  108  A    between atoms: _266  and  _267
REMARK  109  A    between atoms: _266  and  _269
REMARK  110  A    between atoms: _269  and  _270
REMARK  111  A    between atoms: _272  and  _274
REMARK  112  A    between atoms: _274  and  _275
REMARK  113  A    between atoms: _274  and  _277
REMARK  114  A    between atoms: _277  and  _278
REMARK  115  A    between atoms: _281  and  _283
REMARK  116  A    between atoms: _283  and  _284
REMARK  117  A    between atoms: _283  and  _286
REMARK  118  A    between atoms: _286  and  _287
REMARK  119  A    between atoms: _290  and  _292
REMARK  120  A    between atoms: _292  and  _293
REMARK  121  A    between atoms: _292  and  _295
REMARK  122  A    between atoms: _295  and  _296
REMARK  123  A    between atoms: _299  and  _301
REMARK  124  A    between atoms: _301  and  _302
REMARK  125  A    between atoms: _305  and  _307
REMARK  126  A    between atoms: _307  and  _308
REMARK  127  A    between atoms: _307  and  _310
REMARK  128  A    between atoms: _310  and  _311
REMARK  129  A    between atoms: _314  and  _316
REMARK  130  A    between atoms: _316  and  _317
REMARK  131  A    between atoms: _319  and  _321
REMARK  132  A    between atoms: _321  and  _322
REMARK  133  A    between atoms: _321  and  _324
REMARK  134  A    between atoms: _324  and  _325
REMARK  135  A    between atoms: _328  and  _330
REMARK  136  A    between atoms: _330  and  _331
REMARK  137  A    between atoms: _330  and  _333
REMARK  138  A    between atoms: _336  and  _338
REMARK  139  A    between atoms: _338  and  _339
REMARK  140  A    between atoms: _342  and  _344
REMARK  141  A    between atoms: _344  and  _345
REMARK  142  A    between atoms: _348  and  _350
REMARK  143  A    between atoms: _350  and  _351
REMARK  144  A    between atoms: _353  and  _355
REMARK  145  A    between atoms: _355  and  _356
REMARK  146  A    between atoms: _355  and  _358
REMARK  147  A    between atoms: _361  and  _363
REMARK  148  A    between atoms: _363  and  _364
REMARK  149  A    between atoms: _366  and  _368
REMARK  150  A    between atoms: _368  and  _369
REMARK  151  A    between atoms: _372  and  _374
REMARK  152  A    between atoms: _374  and  _375
REMARK  153  A    between atoms: _374  and  _377
REMARK  154  A    between atoms: _377  and  _378
REMARK  155  A    between atoms: _381  and  _383
REMARK  156  A    between atoms: _383  and  _384
REMARK  157  A    between atoms: _383  and  _386
REMARK  158  A    between atoms: _386  and  _387
REMARK  159  A    between atoms: _393  and  _395
REMARK  160  A    between atoms: _395  and  _396
REMARK  161  A    between atoms: _395  and  _398
REMARK  162  A    between atoms: _398  and  _399
REMARK  163  A    between atoms: _402  and  _404
REMARK  164  A    between atoms: _404  and  _405
REMARK  165  A    between atoms: _404  and  _407
REMARK  166  A    between atoms: _407  and  _408
REMARK  167  A    between atoms: _408  and  _409
REMARK  168  A    between atoms: _409  and  _410
REMARK  169  A    between atoms: _419  and  _421
REMARK  170  A    between atoms: _421  and  _422
REMARK  171  A    between atoms: _421  and  _424
REMARK  172  A    between atoms: _427  and  _429
REMARK  173  A    between atoms: _429  and  _430
REMARK  174  A    between atoms: _429  and  _432
REMARK  175  A    between atoms: _432  and  _433
REMARK  176  A    between atoms: _436  and  _438
REMARK  177  A    between atoms: _438  and  _439
REMARK  178  A    between atoms: _438  and  _441
REMARK  179  A    between atoms: _441  and  _442
REMARK  180  A    between atoms: _442  and  _443
REMARK  181  A    between atoms: _443  and  _444
REMARK  182  A    between atoms: _453  and  _455
REMARK  183  A    between atoms: _455  and  _456
REMARK  184  A    between atoms: _455  and  _458
REMARK  185  A    between atoms: _458  and  _459
REMARK  186  A    between atoms: _462  and  _464
REMARK  187  A    between atoms: _464  and  _465
REMARK  188  A    between atoms: _467  and  _469
REMARK  189  A    between atoms: _469  and  _470
REMARK  190  A    between atoms: _469  and  _472
REMARK  191  A    between atoms: _472  and  _473
REMARK  192  A    between atoms: _473  and  _474
REMARK  193  A    between atoms: _474  and  _475
REMARK  194  A    between atoms: _475  and  _476
REMARK  195  A    between atoms: _480  and  _482
REMARK  196  A    between atoms: _482  and  _483
REMARK  197  A    between atoms: _482  and  _485
REMARK  198  A    between atoms: _487  and  _489
REMARK  199  A    between atoms: _489  and  _490
REMARK  200  A    between atoms: _489  and  _492
REMARK  201  A    between atoms: _492  and  _493
REMARK  202  A    between atoms: _496  and  _498
REMARK  203  A    between atoms: _498  and  _499
REMARK  204  A    between atoms: _498  and  _501
REMARK  205  A    between atoms: _501  and  _502
REMARK  206  A    between atoms: _502  and  _503
REMARK  207  A    between atoms: _506  and  _508
REMARK  208  A    between atoms: _508  and  _509
REMARK  209  A    between atoms: _508  and  _511
REMARK  210  A    between atoms: _511  and  _512
REMARK  211  A    between atoms: _517  and  _519
REMARK  212  A    between atoms: _519  and  _520
REMARK  213  A    between atoms: _519  and  _522
REMARK  214  A    between atoms: _522  and  _523
REMARK  215  A    between atoms: _526  and  _528
REMARK  216  A    between atoms: _528  and  _529
REMARK  217  A    between atoms: _528  and  _531
REMARK  218  A    between atoms: _531  and  _532
REMARK  219  A    between atoms: _538  and  _540
REMARK  220  A    between atoms: _540  and  _541
REMARK  221  A    between atoms: _540  and  _543
REMARK  222  A    between atoms: _543  and  _544
REMARK  223  A    between atoms: _550  and  _552
REMARK  224  A    between atoms: _552  and  _553
REMARK  225  A    between atoms: _552  and  _555
REMARK  226  A    between atoms: _555  and  _556
REMARK  227  A    between atoms: _559  and  _561
REMARK  228  A    between atoms: _561  and  _562
REMARK  229  A    between atoms: _561  and  _564
REMARK  230  A    between atoms: _564  and  _565
REMARK  231  A    between atoms: _568  and  _570
REMARK  232  A    between atoms: _570  and  _571
REMARK  233  A    between atoms: _570  and  _573
REMARK  234  A    between atoms: _573  and  _574
REMARK                            x       y       z     vdW  Elec       q    Type
REMARK                         _______ _______ _______ _____ _____    ______ ____
ROOT
ATOM      1  NE  ARG A   1      55.092  55.661  25.300  0.00  0.00    -0.265 N 
ATOM      2  HE  ARG A   1      56.111  55.536  25.465  0.00  0.00    +0.259 HD
ATOM      3  CZ  ARG A   1      54.458  54.726  24.600  0.00  0.00    +0.342 C 
ATOM      4  NH2 ARG A   1      53.156  54.837  24.350  0.00  0.00    -0.292 N 
ATOM      5 HH21 ARG A   1      52.627  55.660  24.703  0.00  0.00    +0.255 HD
ATOM      6 HH22 ARG A   1      52.667  54.101  23.801  0.00  0.00    +0.255 HD
ATOM      7  NH1 ARG A   1      55.123  53.665  24.166  0.00  0.00    -0.292 N 
ATOM      8 HH11 ARG A   1      56.137  53.566  24.374  0.00  0.00    +0.255 HD
ATOM      9 HH12 ARG A   1      54.631  52.931  23.618  0.00  0.00    +0.255 HD
ENDROOT
BRANCH   1  10
ATOM     10  CD  ARG A   1      54.454  56.852  25.853  0.00  0.00    +0.174 C 
BRANCH  10  11
ATOM     11  CG  ARG A   1      55.328  58.090  25.713  0.00  0.00    +0.045 C 
BRANCH  11  12
ATOM     12  CB  ARG A   1      55.266  58.644  24.295  0.00  0.00    +0.029 C 
BRANCH  12  13
ATOM     13  CA  ARG A   1      56.126  59.891  24.068  0.00  0.00    +0.133 C 
BRANCH  13  14
ATOM     14  N   ARG A   1      55.649  61.005  24.885  0.00  0.00    -0.239 NA
ATOM     15  H   ARG A   1      54.757  60.918  25.413  0.00  0.00    +0.142 HD
ENDBRANCH  13  14
BRANCH  13  16
ATOM     16  C   ARG A   1      56.116  60.273  22.584  0.00  0.00    +0.224 C 
ATOM     17  O   ARG A   1      57.011  59.887  21.824  0.00  0.00    -0.287 OA
ENDBRANCH  13  16
ENDBRANCH  12  13
ENDBRANCH  11  12
ENDBRANCH  10  11
ENDBRANCH   1  10
TORSDOF 6
REMARK  Name = ../refined-set-2016/4pp5/4pp5_pocket.pdb
REMARK  234 active torsions:
REMARK  status: ('A' for Active; 'I' for Inactive)
REMARK    1  A    between atoms: _1  and  _3
REMARK    2  A    between atoms: _3  and  _4
REMARK    3  A    between atoms: _3  and  _6
REMARK    4  A    between atoms: _6  and  _7
REMARK    5  A    between atoms: _7  and  _8
REMARK    6  A    between atoms: _12  and  _13
REMARK    7  A    between atoms: _18  and  _20
REMARK    8  A    between atoms: _20  and  _21
REMARK    9  A    between atoms: _20  and  _23
REMARK   10  A    between atoms: _26  and  _28
REMARK   11  A    between atoms: _28  and  _29
REMARK   12  A    between atoms: _28  and  _31
REMARK   13  A    between atoms: _31  and  _32
REMARK   14  A    between atoms: _35  and  _37
REMARK   15  A    between atoms: _37  and  _38
REMARK   16  A    between atoms: _37  and  _40
REMARK   17  A    between atoms: _40  and  _41
REMARK   18  A    between atoms: _46  and  _48
REMARK   19  A    between atoms: _48  and  _49
REMARK   20  A    between atoms: _48  and  _51
REMARK   21  A    between atoms: _51  and  _52
REMARK   22  A    between atoms: _55  and  _57
REMARK   23  A    between atoms: _57  and  _58
REMARK   24  A    between atoms: _57  and  _60
REMARK   25  A    between atoms: _62  and  _64
REMARK   26  A    between atoms: _64  and  _65
REMARK   27  A    between atoms: _64  and  _67
REMARK   28  A    between atoms: _67  and  _68
REMARK   29  A    between atoms: _68  and  _69
REMARK   30  A    between atoms: _74  and  _76
REMARK   31  A    between atoms: _76  and  _77
REMARK   32  A    between atoms: _80  and  _82
REMARK   33  A    between atoms: _82  and  _83
REMARK   34  A    between atoms: _86  and  _88
REMARK   35  A    between atoms: _88  and  _89
REMARK   36  A    between atoms: _88  and  _91
REMARK   37  A    between atoms: _91  and  _92
REMARK   38  A    between atoms: _95  and  _97
REMARK   39  A    between atoms: _97  and  _98
REMARK   40  A    between atoms: _97  and  _100
REMARK   41  A    between atoms: _100  and  _101
REMARK   42  A    between atoms: _101  and  _102
REMARK   43  A    between atoms: _102  and  _103
REMARK   44  A    between atoms: _103  and  _104
REMARK   45  A    between atoms: _108  and  _110
REMARK   46  A    between atoms: _110  and  _111
REMARK   47  A    between atoms: _110  and  _113
REMARK   48  A    between atoms: _113  and  _114
REMARK   49  A    between atoms: _114  and  _115
REMARK   50  A    between atoms: _120  and  _122
REMARK   51  A    between atoms: _122  and  _123
REMARK   52  A    between atoms: _122  and  _125
REMARK   53  A    between atoms: _125  and  _126
REMARK   54  A    between atoms: _129  and  _131
REMARK   55  A    between atoms: _131  and  _132
REMARK   56  A    between atoms: _131  and  _134
REMARK   57  A    between atoms: _134  and  _135
REMARK   58  A    between atoms: _138  and  _140
REMARK   59  A    between atoms: _140  and  _141
REMARK   60  A    between atoms: _140  and  _143
REMARK   61  A    between atoms: _143  and  _144
REMARK   62  A    between atoms: _154  and  _156
REMARK   63  A    between atoms: _156  and  _157
REMARK   64  A    between atoms: _156  and  _159
REMARK   65  A    between atoms: _159  and  _160
REMARK   66  A    between atoms: _165  and  _167
REMARK   67  A    between atoms: _167  and  _168
REMARK   68  A    between atoms: _167  and  _170
REMARK   69  A    between atoms: _170  and  _171
REMARK   70  A    between atoms: _171  and  _172
REMARK   71  A    between atoms: _175  and  _177
REMARK   72  A    between atoms: _177  and  _178
REMARK   73  A    between atoms: _177  and  _180
REMARK   74  A    between atoms: _180  and  _181
REMARK   75  A    between atoms: _184  and  _186
REMARK   76  A    between atoms: _186  and  _187
REMARK   77  A    between atoms: _186  and  _189
REMARK   78  A    between atoms: _189  and  _190
REMARK   79  A    between atoms: _193  and  _195
REMARK   80  A    between atoms: _195  and  _196
REMARK   81  A    between atoms: _195  and  _198
REMARK   82  A    between atoms: _198  and  _199
REMARK   83  A    between atoms: _202  and  _204
REMARK   84  A    between atoms: _204  and  _205
REMARK   85  A    between atoms: _208  and  _210
REMARK   86  A    between atoms: _210  and  _211
REMARK   87  A    between atoms: _210  and  _213
REMARK   88  A    between atoms: _213  and  _214
REMARK   89  A    between atoms: _216  and  _218
REMARK   90  A    between atoms: _218  and  _219
REMARK   91  A    between atoms: _218  and  _221
REMARK   92  A    between atoms: _221  and  _222
REMARK   93  A    between atoms: _228  and  _230
REMARK   94  A    between atoms: _230  and  _231
REMARK   95  A    between atoms: _230  and  _233
REMARK   96  A    between atoms: _233  and  _234
REMARK   97  A    between atoms: _236  and  _238
REMARK   98  A    between atoms: _238  and  _239
REMARK   99  A    between atoms: _238  and  _241
REMARK  100  A    between atoms: _241  and  _242
REMARK  101  A    between atoms: _247  and  _249
REMARK  102  A    between atoms: _249  and  _250
REMARK  103  A    between atoms: _249  and  _252
REMARK  104  A    between atoms: _252  and  _253
REMARK  105  A    between atoms: _253  and  _254
REMARK  106  A    between atoms: _254  and  _255
REMARK  107  A    between atoms: _264  and  _266
REMARK  108  A    between atoms: _266  and  _267
REMARK  109  A    between atoms: _266  and  _269
REMARK  110  A    between atoms: _269  and  _270
REMARK  111  A    between atoms: _272  and  _274
REMARK  112  A    between atoms: _274  and  _275
REMARK  113  A    between atoms: _274  and  _277
REMARK  114  A    between atoms: _277  and  _278
REMARK  115  A    between atoms: _281  and  _283
REMARK  116  A    between atoms: _283  and  _284
REMARK  117  A    between atoms: _283  and  _286
REMARK  118  A    between atoms: _286  and  _287
REMARK  119  A    between atoms: _290  and  _292
REMARK  120  A    between atoms: _292  and  _293
REMARK  121  A    between atoms: _292  and  _295
REMARK  122  A    between atoms: _295  and  _296
REMARK  123  A    between atoms: _299  and  _301
REMARK  124  A    between atoms: _301  and  _302
REMARK  125  A    between atoms: _305  and  _307
REMARK  126  A    between atoms: _307  and  _308
REMARK  127  A    between atoms: _307  and  _310
REMARK  128  A    between atoms: _310  and  _311
REMARK  129  A    between atoms: _314  and  _316
REMARK  130  A    between atoms: _316  and  _317
REMARK  131  A    between atoms: _319  and  _321
REMARK  132  A    between atoms: _321  and  _322
REMARK  133  A    between atoms: _321  and  _324
REMARK  134  A    between atoms: _324  and  _325
REMARK  135  A    between atoms: _328  and  _330
REMARK  136  A    between atoms: _330  and  _331
REMARK  137  A    between atoms: _330  and  _333
REMARK  138  A    between atoms: _336  and  _338
REMARK  139  A    between atoms: _338  and  _339
REMARK  140  A    between atoms: _342  and  _344
REMARK  141  A    between atoms: _344  and  _345
REMARK  142  A    between atoms: _348  and  _350
REMARK  143  A    between atoms: _350  and  _351
REMARK  144  A    between atoms: _353  and  _355
REMARK  145  A    between atoms: _355  and  _356
REMARK  146  A    between atoms: _355  and  _358
REMARK  147  A    between atoms: _361  and  _363
REMARK  148  A    between atoms: _363  and  _364
REMARK  149  A    between atoms: _366  and  _368
REMARK  150  A    between atoms: _368  and  _369
REMARK  151  A    between atoms: _372  and  _374
REMARK  152  A    between atoms: _374  and  _375
REMARK  153  A    between atoms: _374  and  _377
REMARK  154  A    between atoms: _377  and  _378
REMARK  155  A    between atoms: _381  and  _383
REMARK  156  A    between atoms: _383  and  _384
REMARK  157  A    between atoms: _383  and  _386
REMARK  158  A    between atoms: _386  and  _387
REMARK  159  A    between atoms: _393  and  _395
REMARK  160  A    between atoms: _395  and  _396
REMARK  161  A    between atoms: _395  and  _398
REMARK  162  A    between atoms: _398  and  _399
REMARK  163  A    between atoms: _402  and  _404
REMARK  164  A    between atoms: _404  and  _405
REMARK  165  A    between atoms: _404  and  _407
REMARK  166  A    between atoms: _407  and  _408
REMARK  167  A    between atoms: _408  and  _409
REMARK  168  A    between atoms: _409  and  _410
REMARK  169  A    between atoms: _419  and  _421
REMARK  170  A    between atoms: _421  and  _422
REMARK  171  A    between atoms: _421  and  _424
REMARK  172  A    between atoms: _427  and  _429
REMARK  173  A    between atoms: _429  and  _430
REMARK  174  A    between atoms: _429  and  _432
REMARK  175  A    between atoms: _432  and  _433
REMARK  176  A    between atoms: _436  and  _438
REMARK  177  A    between atoms: _438  and  _439
REMARK  178  A    between atoms: _438  and  _441
REMARK  179  A    between atoms: _441  and  _442
REMARK  180  A    between atoms: _442  and  _443
REMARK  181  A    between atoms: _443  and  _444
REMARK  182  A    between atoms: _453  and  _455
REMARK  183  A    between atoms: _455  and  _456
REMARK  184  A    between atoms: _455  and  _458
REMARK  185  A    between atoms: _458  and  _459
REMARK  186  A    between atoms: _462  and  _464
REMARK  187  A    between atoms: _464  and  _465
REMARK  188  A    between atoms: _467  and  _469
REMARK  189  A    between atoms: _469  and  _470
REMARK  190  A    between atoms: _469  and  _472
REMARK  191  A    between atoms: _472  and  _473
REMARK  192  A    between atoms: _473  and  _474
REMARK  193  A    between atoms: _474  and  _475
REMARK  194  A    between atoms: _475  and  _476
REMARK  195  A    between atoms: _480  and  _482
REMARK  196  A    between atoms: _482  and  _483
REMARK  197  A    between atoms: _482  and  _485
REMARK  198  A    between atoms: _487  and  _489
REMARK  199  A    between atoms: _489  and  _490
REMARK  200  A    between atoms: _489  and  _492
REMARK  201  A    between atoms: _492  and  _493
REMARK  202  A    between atoms: _496  and  _498
REMARK  203  A    between atoms: _498  and  _499
REMARK  204  A    between atoms: _498  and  _501
REMARK  205  A    between atoms: _501  and  _502
REMARK  206  A    between atoms: _502  and  _503
REMARK  207  A    between atoms: _506  and  _508
REMARK  208  A    between atoms: _508  and  _509
REMARK  209  A    between atoms: _508  and  _511
REMARK  210  A    between atoms: _511  and  _512
REMARK  211  A    between atoms: _517  and  _519
REMARK  212  A    between atoms: _519  and  _520
REMARK  213  A    between atoms: _519  and  _522
REMARK  214  A    between atoms: _522  and  _523
REMARK  215  A    between atoms: _526  and  _528
REMARK  216  A    between atoms: _528  and  _529
REMARK  217  A    between atoms: _528  and  _531
REMARK  218  A    between atoms: _531  and  _532
REMARK  219  A    between atoms: _538  and  _540
REMARK  220  A    between atoms: _540  and  _541
REMARK  221  A    between atoms: _540  and  _543
REMARK  222  A    between atoms: _543  and  _544
REMARK  223  A    between atoms: _550  and  _552
REMARK  224  A    between atoms: _552  and  _553
REMARK  225  A    between atoms: _552  and  _555
REMARK  226  A    between atoms: _555  and  _556
REMARK  227  A    between atoms: _559  and  _561
REMARK  228  A    between atoms: _561  and  _562
REMARK  229  A    between atoms: _561  and  _564
REMARK  230  A    between atoms: _564  and  _565
REMARK  231  A    between atoms: _568  and  _570
REMARK  232  A    between atoms: _570  and  _571
REMARK  233  A    between atoms: _570  and  _573
REMARK  234  A    between atoms: _573  and  _574
REMARK                            x       y       z     vdW  Elec       q    Type
REMARK                         _______ _______ _______ _____ _____    ______ ____
ROOT
ATOM      1  CA  ILE A   1      68.270  56.375  31.670  0.00  0.00    +0.145 C 
ENDROOT
BRANCH   1   2
ATOM      2  C   ILE A   1      68.147  55.389  30.511  0.00  0.00    +0.238 C 
ATOM      3  O   ILE A   1      68.577  54.237  30.613  0.00  0.00    -0.274 OA
ATOM      4  N   GLY A   2      67.590  55.855  29.400  0.00  0.00    -0.297 N 
ATOM      5  H   GLY A   2      67.258  56.840  29.362  0.00  0.00    +0.150 HD
BRANCH   4   6
ATOM      6  CA  GLY A   2      67.441  55.000  28.238  0.00  0.00    +0.163 C 
BRANCH   6   7
ATOM      7  C   GLY A   2      68.791  54.539  27.721  0.00  0.00    +0.229 C 
ATOM      8  O   GLY A   2      68.953  53.382  27.317  0.00  0.00    -0.286 OA
ENDBRANCH   6   7
ENDBRANCH   4   6
ENDBRANCH   1   2
BRANCH   1   9
ATOM      9  N   ILE A   1      68.648  57.698  31.190  0.00  0.00    -0.238 NA
ATOM     10  H   ILE A   1      67.979  58.487  31.293  0.00  0.00    +0.142 HD
ENDBRANCH   1   9
BRANCH   1  11
ATOM     11  CB  ILE A   1      66.949  56.451  32.480  0.00  0.00    +0.025 C 
ATOM     12  CG2 ILE A   1      66.368  55.051  32.712  0.00  0.00    +0.002 C 
BRANCH  11  13
ATOM     13  CG1 ILE A   1      67.224  57.147  33.818  0.00  0.00    +0.002 C 
ATOM     14  CD1 ILE A   1      65.967  57.475  34.622  0.00  0.00    +0.000 C 
ENDBRANCH  11  13
ENDBRANCH   1  11
TORSDOF 6
REMARK  Name = ../refined-set-2016/4pp5/4pp5_pocket.pdb
REMARK  234 active torsions:
REMARK  status: ('A' for Active; 'I' for Inactive)
REMARK    1  A    between atoms: _1  and  _3
REMARK    2  A    between atoms: _3  and  _4
REMARK    3  A    between atoms: _3  and  _6
REMARK    4  A    between atoms: _6  and  _7
REMARK    5  A    between atoms: _7  and  _8
REMARK    6  A    between atoms: _12  and  _13
REMARK    7  A    between atoms: _18  and  _20
REMARK    8  A    between atoms: _20  and  _21
REMARK    9  A    between atoms: _20  and  _23
REMARK   10  A    between atoms: _26  and  _28
REMARK   11  A    between atoms: _28  and  _29
REMARK   12  A    between atoms: _28  and  _31
REMARK   13  A    between atoms: _31  and  _32
REMARK   14  A    between atoms: _35  and  _37
REMARK   15  A    between atoms: _37  and  _38
REMARK   16  A    between atoms: _37  and  _40
REMARK   17  A    between atoms: _40  and  _41
REMARK   18  A    between atoms: _46  and  _48
REMARK   19  A    between atoms: _48  and  _49
REMARK   20  A    between atoms: _48  and  _51
REMARK   21  A    between atoms: _51  and  _52
REMARK   22  A    between atoms: _55  and  _57
REMARK   23  A    between atoms: _57  and  _58
REMARK   24  A    between atoms: _57  and  _60
REMARK   25  A    between atoms: _62  and  _64
REMARK   26  A    between atoms: _64  and  _65
REMARK   27  A    between atoms: _64  and  _67
REMARK   28  A    between atoms: _67  and  _68
REMARK   29  A    between atoms: _68  and  _69
REMARK   30  A    between atoms: _74  and  _76
REMARK   31  A    between atoms: _76  and  _77
REMARK   32  A    between atoms: _80  and  _82
REMARK   33  A    between atoms: _82  and  _83
REMARK   34  A    between atoms: _86  and  _88
REMARK   35  A    between atoms: _88  and  _89
REMARK   36  A    between atoms: _88  and  _91
REMARK   37  A    between atoms: _91  and  _92
REMARK   38  A    between atoms: _95  and  _97
REMARK   39  A    between atoms: _97  and  _98
REMARK   40  A    between atoms: _97  and  _100
REMARK   41  A    between atoms: _100  and  _101
REMARK   42  A    between atoms: _101  and  _102
REMARK   43  A    between atoms: _102  and  _103
REMARK   44  A    between atoms: _103  and  _104
REMARK   45  A    between atoms: _108  and  _110
REMARK   46  A    between atoms: _110  and  _111
REMARK   47  A    between atoms: _110  and  _113
REMARK   48  A    between atoms: _113  and  _114
REMARK   49  A    between atoms: _114  and  _115
REMARK   50  A    between atoms: _120  and  _122
REMARK   51  A    between atoms: _122  and  _123
REMARK   52  A    between atoms: _122  and  _125
REMARK   53  A    between atoms: _125  and  _126
REMARK   54  A    between atoms: _129  and  _131
REMARK   55  A    between atoms: _131  and  _132
REMARK   56  A    between atoms: _131  and  _134
REMARK   57  A    between atoms: _134  and  _135
REMARK   58  A    between atoms: _138  and  _140
REMARK   59  A    between atoms: _140  and  _141
REMARK   60  A    between atoms: _140  and  _143
REMARK   61  A    between atoms: _143  and  _144
REMARK   62  A    between atoms: _154  and  _156
REMARK   63  A    between atoms: _156  and  _157
REMARK   64  A    between atoms: _156  and  _159
REMARK   65  A    between atoms: _159  and  _160
REMARK   66  A    between atoms: _165  and  _167
REMARK   67  A    between atoms: _167  and  _168
REMARK   68  A    between atoms: _167  and  _170
REMARK   69  A    between atoms: _170  and  _171
REMARK   70  A    between atoms: _171  and  _172
REMARK   71  A    between atoms: _175  and  _177
REMARK   72  A    between atoms: _177  and  _178
REMARK   73  A    between atoms: _177  and  _180
REMARK   74  A    between atoms: _180  and  _181
REMARK   75  A    between atoms: _184  and  _186
REMARK   76  A    between atoms: _186  and  _187
REMARK   77  A    between atoms: _186  and  _189
REMARK   78  A    between atoms: _189  and  _190
REMARK   79  A    between atoms: _193  and  _195
REMARK   80  A    between atoms: _195  and  _196
REMARK   81  A    between atoms: _195  and  _198
REMARK   82  A    between atoms: _198  and  _199
REMARK   83  A    between atoms: _202  and  _204
REMARK   84  A    between atoms: _204  and  _205
REMARK   85  A    between atoms: _208  and  _210
REMARK   86  A    between atoms: _210  and  _211
REMARK   87  A    between atoms: _210  and  _213
REMARK   88  A    between atoms: _213  and  _214
REMARK   89  A    between atoms: _216  and  _218
REMARK   90  A    between atoms: _218  and  _219
REMARK   91  A    between atoms: _218  and  _221
REMARK   92  A    between atoms: _221  and  _222
REMARK   93  A    between atoms: _228  and  _230
REMARK   94  A    between atoms: _230  and  _231
REMARK   95  A    between atoms: _230  and  _233
REMARK   96  A    between atoms: _233  and  _234
REMARK   97  A    between atoms: _236  and  _238
REMARK   98  A    between atoms: _238  and  _239
REMARK   99  A    between atoms: _238  and  _241
REMARK  100  A    between atoms: _241  and  _242
REMARK  101  A    between atoms: _247  and  _249
REMARK  102  A    between atoms: _249  and  _250
REMARK  103  A    between atoms: _249  and  _252
REMARK  104  A    between atoms: _252  and  _253
REMARK  105  A    between atoms: _253  and  _254
REMARK  106  A    between atoms: _254  and  _255
REMARK  107  A    between atoms: _264  and  _266
REMARK  108  A    between atoms: _266  and  _267
REMARK  109  A    between atoms: _266  and  _269
REMARK  110  A    between atoms: _269  and  _270
REMARK  111  A    between atoms: _272  and  _274
REMARK  112  A    between atoms: _274  and  _275
REMARK  113  A    between atoms: _274  and  _277
REMARK  114  A    between atoms: _277  and  _278
REMARK  115  A    between atoms: _281  and  _283
REMARK  116  A    between atoms: _283  and  _284
REMARK  117  A    between atoms: _283  and  _286
REMARK  118  A    between atoms: _286  and  _287
REMARK  119  A    between atoms: _290  and  _292
REMARK  120  A    between atoms: _292  and  _293
REMARK  121  A    between atoms: _292  and  _295
REMARK  122  A    between atoms: _295  and  _296
REMARK  123  A    between atoms: _299  and  _301
REMARK  124  A    between atoms: _301  and  _302
REMARK  125  A    between atoms: _305  and  _307
REMARK  126  A    between atoms: _307  and  _308
REMARK  127  A    between atoms: _307  and  _310
REMARK  128  A    between atoms: _310  and  _311
REMARK  129  A    between atoms: _314  and  _316
REMARK  130  A    between atoms: _316  and  _317
REMARK  131  A    between atoms: _319  and  _321
REMARK  132  A    between atoms: _321  and  _322
REMARK  133  A    between atoms: _321  and  _324
REMARK  134  A    between atoms: _324  and  _325
REMARK  135  A    between atoms: _328  and  _330
REMARK  136  A    between atoms: _330  and  _331
REMARK  137  A    between atoms: _330  and  _333
REMARK  138  A    between atoms: _336  and  _338
REMARK  139  A    between atoms: _338  and  _339
REMARK  140  A    between atoms: _342  and  _344
REMARK  141  A    between atoms: _344  and  _345
REMARK  142  A    between atoms: _348  and  _350
REMARK  143  A    between atoms: _350  and  _351
REMARK  144  A    between atoms: _353  and  _355
REMARK  145  A    between atoms: _355  and  _356
REMARK  146  A    between atoms: _355  and  _358
REMARK  147  A    between atoms: _361  and  _363
REMARK  148  A    between atoms: _363  and  _364
REMARK  149  A    between atoms: _366  and  _368
REMARK  150  A    between atoms: _368  and  _369
REMARK  151  A    between atoms: _372  and  _374
REMARK  152  A    between atoms: _374  and  _375
REMARK  153  A    between atoms: _374  and  _377
REMARK  154  A    between atoms: _377  and  _378
REMARK  155  A    between atoms: _381  and  _383
REMARK  156  A    between atoms: _383  and  _384
REMARK  157  A    between atoms: _383  and  _386
REMARK  158  A    between atoms: _386  and  _387
REMARK  159  A    between atoms: _393  and  _395
REMARK  160  A    between atoms: _395  and  _396
REMARK  161  A    between atoms: _395  and  _398
REMARK  162  A    between atoms: _398  and  _399
REMARK  163  A    between atoms: _402  and  _404
REMARK  164  A    between atoms: _404  and  _405
REMARK  165  A    between atoms: _404  and  _407
REMARK  166  A    between atoms: _407  and  _408
REMARK  167  A    between atoms: _408  and  _409
REMARK  168  A    between atoms: _409  and  _410
REMARK  169  A    between atoms: _419  and  _421
REMARK  170  A    between atoms: _421  and  _422
REMARK  171  A    between atoms: _421  and  _424
REMARK  172  A    between atoms: _427  and  _429
REMARK  173  A    between atoms: _429  and  _430
REMARK  174  A    between atoms: _429  and  _432
REMARK  175  A    between atoms: _432  and  _433
REMARK  176  A    between atoms: _436  and  _438
REMARK  177  A    between atoms: _438  and  _439
REMARK  178  A    between atoms: _438  and  _441
REMARK  179  A    between atoms: _441  and  _442
REMARK  180  A    between atoms: _442  and  _443
REMARK  181  A    between atoms: _443  and  _444
REMARK  182  A    between atoms: _453  and  _455
REMARK  183  A    between atoms: _455  and  _456
REMARK  184  A    between atoms: _455  and  _458
REMARK  185  A    between atoms: _458  and  _459
REMARK  186  A    between atoms: _462  and  _464
REMARK  187  A    between atoms: _464  and  _465
REMARK  188  A    between atoms: _467  and  _469
REMARK  189  A    between atoms: _469  and  _470
REMARK  190  A    between atoms: _469  and  _472
REMARK  191  A    between atoms: _472  and  _473
REMARK  192  A    between atoms: _473  and  _474
REMARK  193  A    between atoms: _474  and  _475
REMARK  194  A    between atoms: _475  and  _476
REMARK  195  A    between atoms: _480  and  _482
REMARK  196  A    between atoms: _482  and  _483
REMARK  197  A    between atoms: _482  and  _485
REMARK  198  A    between atoms: _487  and  _489
REMARK  199  A    between atoms: _489  and  _490
REMARK  200  A    between atoms: _489  and  _492
REMARK  201  A    between atoms: _492  and  _493
REMARK  202  A    between atoms: _496  and  _498
REMARK  203  A    between atoms: _498  and  _499
REMARK  204  A    between atoms: _498  and  _501
REMARK  205  A    between atoms: _501  and  _502
REMARK  206  A    between atoms: _502  and  _503
REMARK  207  A    between atoms: _506  and  _508
REMARK  208  A    between atoms: _508  and  _509
REMARK  209  A    between atoms: _508  and  _511
REMARK  210  A    between atoms: _511  and  _512
REMARK  211  A    between atoms: _517  and  _519
REMARK  212  A    between atoms: _519  and  _520
REMARK  213  A    between atoms: _519  and  _522
REMARK  214  A    between atoms: _522  and  _523
REMARK  215  A    between atoms: _526  and  _528
REMARK  216  A    between atoms: _528  and  _529
REMARK  217  A    between atoms: _528  and  _531
REMARK  218  A    between atoms: _531  and  _532
REMARK  219  A    between atoms: _538  and  _540
REMARK  220  A    between atoms: _540  and  _541
REMARK  221  A    between atoms: _540  and  _543
REMARK  222  A    between atoms: _543  and  _544
REMARK  223  A    between atoms: _550  and  _552
REMARK  224  A    between atoms: _552  and  _553
REMARK  225  A    between atoms: _552  and  _555
REMARK  226  A    between atoms: _555  and  _556
REMARK  227  A    between atoms: _559  and  _561
REMARK  228  A    between atoms: _561  and  _562
REMARK  229  A    between atoms: _561  and  _564
REMARK  230  A    between atoms: _564  and  _565
REMARK  231  A    between atoms: _568  and  _570
REMARK  232  A    between atoms: _570  and  _571
REMARK  233  A    between atoms: _570  and  _573
REMARK  234  A    between atoms: _573  and  _574
REMARK                            x       y       z     vdW  Elec       q    Type
REMARK                         _______ _______ _______ _____ _____    ______ ____
ROOT
ATOM      1  CA  GLU A   4      74.254  49.545  27.746  0.00  0.00    +0.149 C 
ENDROOT
BRANCH   1   2
ATOM      2  C   GLU A   4      74.091  48.198  28.441  0.00  0.00    +0.241 C 
ATOM      3  N   HIS A   5      73.146  48.115  29.375  0.00  0.00    -0.297 N 
ATOM      4  H   HIS A   5      72.575  48.955  29.596  0.00  0.00    +0.150 HD
ATOM      5  O   GLU A   4      74.813  47.252  28.140  0.00  0.00    -0.273 OA
BRANCH   3   6
ATOM      6  CA  HIS A   5      72.894  46.870  30.096  0.00  0.00    +0.155 C 
BRANCH   6   7
ATOM      7  C   HIS A   5      72.475  45.762  29.125  0.00  0.00    +0.241 C 
ATOM      8  O   HIS A   5      72.935  44.625  29.234  0.00  0.00    -0.273 OA
ATOM      9  N   LEU A   6      71.599  46.101  28.181  0.00  0.00    -0.297 N 
ATOM     10  H   LEU A   6      71.248  47.079  28.149  0.00  0.00    +0.150 HD
BRANCH   9  11
ATOM     11  CA  LEU A   6      71.115  45.143  27.188  0.00  0.00    +0.149 C 
BRANCH  11  12
ATOM     12  C   LEU A   6      72.245  44.605  26.321  0.00  0.00    +0.241 C 
ATOM     13  O   LEU A   6      72.288  43.410  26.022  0.00  0.00    -0.273 OA
ATOM     14  N   PHE A   7      73.155  45.479  25.897  0.00  0.00    -0.298 N 
ATOM     15  H   PHE A   7      73.072  46.485  26.149  0.00  0.00    +0.150 HD
BRANCH  14  16
ATOM     16  CA  PHE A   7      74.267  45.020  25.079  0.00  0.00    +0.141 C 
BRANCH  16  17
ATOM     17  C   PHE A   7      75.174  44.094  25.888  0.00  0.00    +0.227 C 
ATOM     18  O   PHE A   7      75.741  43.147  25.347  0.00  0.00    -0.286 OA
ENDBRANCH  16  17
BRANCH  16  19
ATOM     19  CB  PHE A   7      75.055  46.204  24.515  0.00  0.00    +0.054 C 
BRANCH  19  20
ATOM     20  CG  PHE A   7      74.398  46.842  23.321  0.00  0.00    -0.020 A 
ATOM     21  CD2 PHE A   7      73.911  48.141  23.384  0.00  0.00    -0.004 A 
ATOM     22  CE2 PHE A   7      73.274  48.718  22.289  0.00  0.00    -0.000 A 
ATOM     23  CZ  PHE A   7      73.121  47.994  21.115  0.00  0.00    -0.000 A 
ATOM     24  CE1 PHE A   7      73.604  46.697  21.034  0.00  0.00    -0.000 A 
ATOM     25  CD1 PHE A   7      74.241  46.125  22.137  0.00  0.00    -0.004 A 
ENDBRANCH  19  20
ENDBRANCH  16  19
ENDBRANCH  14  16
ENDBRANCH  11  12
BRANCH  11  26
ATOM     26  CB  LEU A   6      70.060  45.790  26.287  0.00  0.00    +0.029 C 
BRANCH  26  27
ATOM     27  CG  LEU A   6      68.672  46.003  26.892  0.00  0.00    +0.002 C 
ATOM     28  CD2 LEU A   6      68.028  44.650  27.153  0.00  0.00    +0.000 C 
ATOM     29  CD1 LEU A   6      67.814  46.834  25.943  0.00  0.00    +0.000 C 
ENDBRANCH  26  27
ENDBRANCH  11  26
ENDBRANCH   9  11
ENDBRANCH   6   7
BRANCH   6  30
ATOM     30  CB  HIS A   5      71.796  47.076  31.154  0.00  0.00    +0.076 C 
BRANCH  30  31
ATOM     31  CG  HIS A   5      72.275  47.750  32.403  0.00  0.00    +0.082 A 
ATOM     32  ND1 HIS A   5      72.885  47.065  33.431  0.00  0.00    -0.227 NA
ATOM     33  CE1 HIS A   5      73.229  47.914  34.383  0.00  0.00    +0.199 A 
ATOM     34  NE2 HIS A   5      72.863  49.127  34.011  0.00  0.00    -0.221 NA
ATOM     35  CD2 HIS A   5      72.262  49.052  32.777  0.00  0.00    +0.115 A 
ENDBRANCH  30  31
ENDBRANCH   6  30
ENDBRANCH   3   6
ENDBRANCH   1   2
BRANCH   1  37
ATOM     36  C   LEU A   3      72.081  49.405  26.655  0.00  0.00    +0.241 C 
ATOM     37  N   GLU A   4      72.948  50.091  27.395  0.00  0.00    -0.297 N 
ATOM     38  H   GLU A   4      72.688  51.040  27.732  0.00  0.00    +0.150 HD
ATOM     39  O   LEU A   3      72.320  48.286  26.207  0.00  0.00    -0.273 OA
BRANCH  36  40
ATOM     40  CA  LEU A   3      70.752  50.084  26.372  0.00  0.00    +0.149 C 
BRANCH  40  43
ATOM     41  C   CYS A   2      69.937  49.893  28.645  0.00  0.00    +0.242 C 
ATOM     42  O   CYS A   2      70.053  48.670  28.618  0.00  0.00    -0.273 OA
ATOM     43  N   LEU A   3      70.242  50.666  27.608  0.00  0.00    -0.297 N 
ATOM     44  H   LEU A   3      70.116  51.696  27.679  0.00  0.00    +0.150 HD
BRANCH  41  45
ATOM     45  CA  CYS A   2      69.439  50.599  29.900  0.00  0.00    +0.160 C 
BRANCH  45  48
ATOM     46  C   LYS A   1      71.460  51.866  30.272  0.00  0.00    +0.238 C 
ATOM     47  O   LYS A   1      72.127  50.834  30.329  0.00  0.00    -0.274 OA
ATOM     48  N   CYS A   2      70.147  51.857  30.079  0.00  0.00    -0.297 N 
ATOM     49  H   CYS A   2      69.621  52.754  30.056  0.00  0.00    +0.150 HD
BRANCH  46  50
ATOM     50  CA  LYS A   1      72.113  53.239  30.432  0.00  0.00    +0.145 C 
BRANCH  50  51
ATOM     51  N   LYS A   1      71.558  54.182  29.473  0.00  0.00    -0.238 NA
ATOM     52  H   LYS A   1      70.990  54.981  29.820  0.00  0.00    +0.142 HD
ENDBRANCH  50  51
BRANCH  50  53
ATOM     53  CB  LYS A   1      71.904  53.753  31.861  0.00  0.00    +0.026 C 
BRANCH  53  54
ATOM     54  CG  LYS A   1      72.477  52.842  32.947  0.00  0.00    -0.000 C 
BRANCH  54  55
ATOM     55  CD  LYS A   1      73.970  52.579  32.746  0.00  0.00    -0.024 C 
BRANCH  55  56
ATOM     56  CE  LYS A   1      74.791  53.853  32.888  0.00  0.00    -0.086 C 
BRANCH  56  57
ATOM     57  NZ  LYS A   1      76.246  53.582  32.696  0.00  0.00    +0.380 N 
ATOM     58  HZ1 LYS A   1      76.567  52.898  33.411  0.00  0.00    -0.089 HD
ATOM     59  HZ2 LYS A   1      76.779  54.469  32.799  0.00  0.00    -0.089 HD
ATOM     60  HZ3 LYS A   1      76.402  53.190  31.745  0.00  0.00    -0.089 HD
ENDBRANCH  56  57
ENDBRANCH  55  56
ENDBRANCH  54  55
ENDBRANCH  53  54
ENDBRANCH  50  53
ENDBRANCH  46  50
ENDBRANCH  45  48
BRANCH  45  61
ATOM     61  CB  CYS A   2      67.938  50.857  29.825  0.00  0.00    +0.098 C 
ATOM     62  SG  CYS A   2      67.268  51.353  31.426  0.00  0.00    -0.080 S 
ENDBRANCH  45  61
ENDBRANCH  41  45
ENDBRANCH  40  43
BRANCH  40  63
ATOM     63  CB  LEU A   3      70.958  51.159  25.304  0.00  0.00    +0.029 C 
BRANCH  63  64
ATOM     64  CG  LEU A   3      69.823  51.400  24.316  0.00  0.00    +0.002 C 
ATOM     65  CD2 LEU A   3      69.480  50.098  23.595  0.00  0.00    +0.000 C 
ATOM     66  CD1 LEU A   3      70.252  52.468  23.321  0.00  0.00    +0.000 C 
ENDBRANCH  63  64
ENDBRANCH  40  63
ENDBRANCH  36  40
ENDBRANCH   1  37
BRANCH   1  67
ATOM     67  CB  GLU A   4      75.010  50.508  28.667  0.00  0.00    +0.041 C 
BRANCH  67  68
ATOM     68  CG  GLU A   4      75.407  51.824  28.018  0.00  0.00    +0.116 C 
BRANCH  68  69
ATOM     69  CD  GLU A   4      76.037  52.789  29.013  0.00  0.00    +0.365 C 
ATOM     70  OE2 GLU A   4      76.996  52.385  29.704  0.00  0.00    -0.246 OA
ATOM     71  OE1 GLU A   4      75.573  53.946  29.103  0.00  0.00    -0.246 OA
ENDBRANCH  68  69
ENDBRANCH  67  68
ENDBRANCH   1  67
TORSDOF 31
REMARK  Name = ../refined-set-2016/4pp5/4pp5_pocket.pdb
REMARK  234 active torsions:
REMARK  status: ('A' for Active; 'I' for Inactive)
REMARK    1  A    between atoms: _1  and  _3
REMARK    2  A    between atoms: _3  and  _4
REMARK    3  A    between atoms: _3  and  _6
REMARK    4  A    between atoms: _6  and  _7
REMARK    5  A    between atoms: _7  and  _8
REMARK    6  A    between atoms: _12  and  _13
REMARK    7  A    between atoms: _18  and  _20
REMARK    8  A    between atoms: _20  and  _21
REMARK    9  A    between atoms: _20  and  _23
REMARK   10  A    between atoms: _26  and  _28
REMARK   11  A    between atoms: _28  and  _29
REMARK   12  A    between atoms: _28  and  _31
REMARK   13  A    between atoms: _31  and  _32
REMARK   14  A    between atoms: _35  and  _37
REMARK   15  A    between atoms: _37  and  _38
REMARK   16  A    between atoms: _37  and  _40
REMARK   17  A    between atoms: _40  and  _41
REMARK   18  A    between atoms: _46  and  _48
REMARK   19  A    between atoms: _48  and  _49
REMARK   20  A    between atoms: _48  and  _51
REMARK   21  A    between atoms: _51  and  _52
REMARK   22  A    between atoms: _55  and  _57
REMARK   23  A    between atoms: _57  and  _58
REMARK   24  A    between atoms: _57  and  _60
REMARK   25  A    between atoms: _62  and  _64
REMARK   26  A    between atoms: _64  and  _65
REMARK   27  A    between atoms: _64  and  _67
REMARK   28  A    between atoms: _67  and  _68
REMARK   29  A    between atoms: _68  and  _69
REMARK   30  A    between atoms: _74  and  _76
REMARK   31  A    between atoms: _76  and  _77
REMARK   32  A    between atoms: _80  and  _82
REMARK   33  A    between atoms: _82  and  _83
REMARK   34  A    between atoms: _86  and  _88
REMARK   35  A    between atoms: _88  and  _89
REMARK   36  A    between atoms: _88  and  _91
REMARK   37  A    between atoms: _91  and  _92
REMARK   38  A    between atoms: _95  and  _97
REMARK   39  A    between atoms: _97  and  _98
REMARK   40  A    between atoms: _97  and  _100
REMARK   41  A    between atoms: _100  and  _101
REMARK   42  A    between atoms: _101  and  _102
REMARK   43  A    between atoms: _102  and  _103
REMARK   44  A    between atoms: _103  and  _104
REMARK   45  A    between atoms: _108  and  _110
REMARK   46  A    between atoms: _110  and  _111
REMARK   47  A    between atoms: _110  and  _113
REMARK   48  A    between atoms: _113  and  _114
REMARK   49  A    between atoms: _114  and  _115
REMARK   50  A    between atoms: _120  and  _122
REMARK   51  A    between atoms: _122  and  _123
REMARK   52  A    between atoms: _122  and  _125
REMARK   53  A    between atoms: _125  and  _126
REMARK   54  A    between atoms: _129  and  _131
REMARK   55  A    between atoms: _131  and  _132
REMARK   56  A    between atoms: _131  and  _134
REMARK   57  A    between atoms: _134  and  _135
REMARK   58  A    between atoms: _138  and  _140
REMARK   59  A    between atoms: _140  and  _141
REMARK   60  A    between atoms: _140  and  _143
REMARK   61  A    between atoms: _143  and  _144
REMARK   62  A    between atoms: _154  and  _156
REMARK   63  A    between atoms: _156  and  _157
REMARK   64  A    between atoms: _156  and  _159
REMARK   65  A    between atoms: _159  and  _160
REMARK   66  A    between atoms: _165  and  _167
REMARK   67  A    between atoms: _167  and  _168
REMARK   68  A    between atoms: _167  and  _170
REMARK   69  A    between atoms: _170  and  _171
REMARK   70  A    between atoms: _171  and  _172
REMARK   71  A    between atoms: _175  and  _177
REMARK   72  A    between atoms: _177  and  _178
REMARK   73  A    between atoms: _177  and  _180
REMARK   74  A    between atoms: _180  and  _181
REMARK   75  A    between atoms: _184  and  _186
REMARK   76  A    between atoms: _186  and  _187
REMARK   77  A    between atoms: _186  and  _189
REMARK   78  A    between atoms: _189  and  _190
REMARK   79  A    between atoms: _193  and  _195
REMARK   80  A    between atoms: _195  and  _196
REMARK   81  A    between atoms: _195  and  _198
REMARK   82  A    between atoms: _198  and  _199
REMARK   83  A    between atoms: _202  and  _204
REMARK   84  A    between atoms: _204  and  _205
REMARK   85  A    between atoms: _208  and  _210
REMARK   86  A    between atoms: _210  and  _211
REMARK   87  A    between atoms: _210  and  _213
REMARK   88  A    between atoms: _213  and  _214
REMARK   89  A    between atoms: _216  and  _218
REMARK   90  A    between atoms: _218  and  _219
REMARK   91  A    between atoms: _218  and  _221
REMARK   92  A    between atoms: _221  and  _222
REMARK   93  A    between atoms: _228  and  _230
REMARK   94  A    between atoms: _230  and  _231
REMARK   95  A    between atoms: _230  and  _233
REMARK   96  A    between atoms: _233  and  _234
REMARK   97  A    between atoms: _236  and  _238
REMARK   98  A    between atoms: _238  and  _239
REMARK   99  A    between atoms: _238  and  _241
REMARK  100  A    between atoms: _241  and  _242
REMARK  101  A    between atoms: _247  and  _249
REMARK  102  A    between atoms: _249  and  _250
REMARK  103  A    between atoms: _249  and  _252
REMARK  104  A    between atoms: _252  and  _253
REMARK  105  A    between atoms: _253  and  _254
REMARK  106  A    between atoms: _254  and  _255
REMARK  107  A    between atoms: _264  and  _266
REMARK  108  A    between atoms: _266  and  _267
REMARK  109  A    between atoms: _266  and  _269
REMARK  110  A    between atoms: _269  and  _270
REMARK  111  A    between atoms: _272  and  _274
REMARK  112  A    between atoms: _274  and  _275
REMARK  113  A    between atoms: _274  and  _277
REMARK  114  A    between atoms: _277  and  _278
REMARK  115  A    between atoms: _281  and  _283
REMARK  116  A    between atoms: _283  and  _284
REMARK  117  A    between atoms: _283  and  _286
REMARK  118  A    between atoms: _286  and  _287
REMARK  119  A    between atoms: _290  and  _292
REMARK  120  A    between atoms: _292  and  _293
REMARK  121  A    between atoms: _292  and  _295
REMARK  122  A    between atoms: _295  and  _296
REMARK  123  A    between atoms: _299  and  _301
REMARK  124  A    between atoms: _301  and  _302
REMARK  125  A    between atoms: _305  and  _307
REMARK  126  A    between atoms: _307  and  _308
REMARK  127  A    between atoms: _307  and  _310
REMARK  128  A    between atoms: _310  and  _311
REMARK  129  A    between atoms: _314  and  _316
REMARK  130  A    between atoms: _316  and  _317
REMARK  131  A    between atoms: _319  and  _321
REMARK  132  A    between atoms: _321  and  _322
REMARK  133  A    between atoms: _321  and  _324
REMARK  134  A    between atoms: _324  and  _325
REMARK  135  A    between atoms: _328  and  _330
REMARK  136  A    between atoms: _330  and  _331
REMARK  137  A    between atoms: _330  and  _333
REMARK  138  A    between atoms: _336  and  _338
REMARK  139  A    between atoms: _338  and  _339
REMARK  140  A    between atoms: _342  and  _344
REMARK  141  A    between atoms: _344  and  _345
REMARK  142  A    between atoms: _348  and  _350
REMARK  143  A    between atoms: _350  and  _351
REMARK  144  A    between atoms: _353  and  _355
REMARK  145  A    between atoms: _355  and  _356
REMARK  146  A    between atoms: _355  and  _358
REMARK  147  A    between atoms: _361  and  _363
REMARK  148  A    between atoms: _363  and  _364
REMARK  149  A    between atoms: _366  and  _368
REMARK  150  A    between atoms: _368  and  _369
REMARK  151  A    between atoms: _372  and  _374
REMARK  152  A    between atoms: _374  and  _375
REMARK  153  A    between atoms: _374  and  _377
REMARK  154  A    between atoms: _377  and  _378
REMARK  155  A    between atoms: _381  and  _383
REMARK  156  A    between atoms: _383  and  _384
REMARK  157  A    between atoms: _383  and  _386
REMARK  158  A    between atoms: _386  and  _387
REMARK  159  A    between atoms: _393  and  _395
REMARK  160  A    between atoms: _395  and  _396
REMARK  161  A    between atoms: _395  and  _398
REMARK  162  A    between atoms: _398  and  _399
REMARK  163  A    between atoms: _402  and  _404
REMARK  164  A    between atoms: _404  and  _405
REMARK  165  A    between atoms: _404  and  _407
REMARK  166  A    between atoms: _407  and  _408
REMARK  167  A    between atoms: _408  and  _409
REMARK  168  A    between atoms: _409  and  _410
REMARK  169  A    between atoms: _419  and  _421
REMARK  170  A    between atoms: _421  and  _422
REMARK  171  A    between atoms: _421  and  _424
REMARK  172  A    between atoms: _427  and  _429
REMARK  173  A    between atoms: _429  and  _430
REMARK  174  A    between atoms: _429  and  _432
REMARK  175  A    between atoms: _432  and  _433
REMARK  176  A    between atoms: _436  and  _438
REMARK  177  A    between atoms: _438  and  _439
REMARK  178  A    between atoms: _438  and  _441
REMARK  179  A    between atoms: _441  and  _442
REMARK  180  A    between atoms: _442  and  _443
REMARK  181  A    between atoms: _443  and  _444
REMARK  182  A    between atoms: _453  and  _455
REMARK  183  A    between atoms: _455  and  _456
REMARK  184  A    between atoms: _455  and  _458
REMARK  185  A    between atoms: _458  and  _459
REMARK  186  A    between atoms: _462  and  _464
REMARK  187  A    between atoms: _464  and  _465
REMARK  188  A    between atoms: _467  and  _469
REMARK  189  A    between atoms: _469  and  _470
REMARK  190  A    between atoms: _469  and  _472
REMARK  191  A    between atoms: _472  and  _473
REMARK  192  A    between atoms: _473  and  _474
REMARK  193  A    between atoms: _474  and  _475
REMARK  194  A    between atoms: _475  and  _476
REMARK  195  A    between atoms: _480  and  _482
REMARK  196  A    between atoms: _482  and  _483
REMARK  197  A    between atoms: _482  and  _485
REMARK  198  A    between atoms: _487  and  _489
REMARK  199  A    between atoms: _489  and  _490
REMARK  200  A    between atoms: _489  and  _492
REMARK  201  A    between atoms: _492  and  _493
REMARK  202  A    between atoms: _496  and  _498
REMARK  203  A    between atoms: _498  and  _499
REMARK  204  A    between atoms: _498  and  _501
REMARK  205  A    between atoms: _501  and  _502
REMARK  206  A    between atoms: _502  and  _503
REMARK  207  A    between atoms: _506  and  _508
REMARK  208  A    between atoms: _508  and  _509
REMARK  209  A    between atoms: _508  and  _511
REMARK  210  A    between atoms: _511  and  _512
REMARK  211  A    between atoms: _517  and  _519
REMARK  212  A    between atoms: _519  and  _520
REMARK  213  A    between atoms: _519  and  _522
REMARK  214  A    between atoms: _522  and  _523
REMARK  215  A    between atoms: _526  and  _528
REMARK  216  A    between atoms: _528  and  _529
REMARK  217  A    between atoms: _528  and  _531
REMARK  218  A    between atoms: _531  and  _532
REMARK  219  A    between atoms: _538  and  _540
REMARK  220  A    between atoms: _540  and  _541
REMARK  221  A    between atoms: _540  and  _543
REMARK  222  A    between atoms: _543  and  _544
REMARK  223  A    between atoms: _550  and  _552
REMARK  224  A    between atoms: _552  and  _553
REMARK  225  A    between atoms: _552  and  _555
REMARK  226  A    between atoms: _555  and  _556
REMARK  227  A    between atoms: _559  and  _561
REMARK  228  A    between atoms: _561  and  _562
REMARK  229  A    between atoms: _561  and  _564
REMARK  230  A    between atoms: _564  and  _565
REMARK  231  A    between atoms: _568  and  _570
REMARK  232  A    between atoms: _570  and  _571
REMARK  233  A    between atoms: _570  and  _573
REMARK  234  A    between atoms: _573  and  _574
REMARK                            x       y       z     vdW  Elec       q    Type
REMARK                         _______ _______ _______ _____ _____    ______ ____
ROOT
ATOM      1  CB  PHE A   1      71.923  41.164  28.882  0.00  0.00    +0.051 C 
ENDROOT
BRANCH   1   2
ATOM      2  CG  PHE A   1      71.632  41.948  30.135  0.00  0.00    -0.020 A 
ATOM      3  CD2 PHE A   1      72.508  41.919  31.217  0.00  0.00    -0.004 A 
ATOM      4  CE2 PHE A   1      72.236  42.649  32.375  0.00  0.00    -0.000 A 
ATOM      5  CZ  PHE A   1      71.075  43.418  32.458  0.00  0.00    -0.000 A 
ATOM      6  CE1 PHE A   1      70.193  43.451  31.384  0.00  0.00    -0.000 A 
ATOM      7  CD1 PHE A   1      70.473  42.718  30.230  0.00  0.00    -0.004 A 
ENDBRANCH   1   2
BRANCH   1   8
ATOM      8  CA  PHE A   1      73.414  40.901  28.643  0.00  0.00    +0.137 C 
BRANCH   8   9
ATOM      9  N   PHE A   1      74.139  42.156  28.465  0.00  0.00    -0.239 NA
ATOM     10  H   PHE A   1      73.627  43.059  28.521  0.00  0.00    +0.142 HD
ENDBRANCH   8   9
BRANCH   8  11
ATOM     11  C   PHE A   1      73.587  40.063  27.379  0.00  0.00    +0.224 C 
ATOM     12  O   PHE A   1      73.793  38.849  27.444  0.00  0.00    -0.287 OA
ENDBRANCH   8  11
ENDBRANCH   1   8
TORSDOF 4
REMARK  Name = ../refined-set-2016/4pp5/4pp5_pocket.pdb
REMARK  234 active torsions:
REMARK  status: ('A' for Active; 'I' for Inactive)
REMARK    1  A    between atoms: _1  and  _3
REMARK    2  A    between atoms: _3  and  _4
REMARK    3  A    between atoms: _3  and  _6
REMARK    4  A    between atoms: _6  and  _7
REMARK    5  A    between atoms: _7  and  _8
REMARK    6  A    between atoms: _12  and  _13
REMARK    7  A    between atoms: _18  and  _20
REMARK    8  A    between atoms: _20  and  _21
REMARK    9  A    between atoms: _20  and  _23
REMARK   10  A    between atoms: _26  and  _28
REMARK   11  A    between atoms: _28  and  _29
REMARK   12  A    between atoms: _28  and  _31
REMARK   13  A    between atoms: _31  and  _32
REMARK   14  A    between atoms: _35  and  _37
REMARK   15  A    between atoms: _37  and  _38
REMARK   16  A    between atoms: _37  and  _40
REMARK   17  A    between atoms: _40  and  _41
REMARK   18  A    between atoms: _46  and  _48
REMARK   19  A    between atoms: _48  and  _49
REMARK   20  A    between atoms: _48  and  _51
REMARK   21  A    between atoms: _51  and  _52
REMARK   22  A    between atoms: _55  and  _57
REMARK   23  A    between atoms: _57  and  _58
REMARK   24  A    between atoms: _57  and  _60
REMARK   25  A    between atoms: _62  and  _64
REMARK   26  A    between atoms: _64  and  _65
REMARK   27  A    between atoms: _64  and  _67
REMARK   28  A    between atoms: _67  and  _68
REMARK   29  A    between atoms: _68  and  _69
REMARK   30  A    between atoms: _74  and  _76
REMARK   31  A    between atoms: _76  and  _77
REMARK   32  A    between atoms: _80  and  _82
REMARK   33  A    between atoms: _82  and  _83
REMARK   34  A    between atoms: _86  and  _88
REMARK   35  A    between atoms: _88  and  _89
REMARK   36  A    between atoms: _88  and  _91
REMARK   37  A    between atoms: _91  and  _92
REMARK   38  A    between atoms: _95  and  _97
REMARK   39  A    between atoms: _97  and  _98
REMARK   40  A    between atoms: _97  and  _100
REMARK   41  A    between atoms: _100  and  _101
REMARK   42  A    between atoms: _101  and  _102
REMARK   43  A    between atoms: _102  and  _103
REMARK   44  A    between atoms: _103  and  _104
REMARK   45  A    between atoms: _108  and  _110
REMARK   46  A    between atoms: _110  and  _111
REMARK   47  A    between atoms: _110  and  _113
REMARK   48  A    between atoms: _113  and  _114
REMARK   49  A    between atoms: _114  and  _115
REMARK   50  A    between atoms: _120  and  _122
REMARK   51  A    between atoms: _122  and  _123
REMARK   52  A    between atoms: _122  and  _125
REMARK   53  A    between atoms: _125  and  _126
REMARK   54  A    between atoms: _129  and  _131
REMARK   55  A    between atoms: _131  and  _132
REMARK   56  A    between atoms: _131  and  _134
REMARK   57  A    between atoms: _134  and  _135
REMARK   58  A    between atoms: _138  and  _140
REMARK   59  A    between atoms: _140  and  _141
REMARK   60  A    between atoms: _140  and  _143
REMARK   61  A    between atoms: _143  and  _144
REMARK   62  A    between atoms: _154  and  _156
REMARK   63  A    between atoms: _156  and  _157
REMARK   64  A    between atoms: _156  and  _159
REMARK   65  A    between atoms: _159  and  _160
REMARK   66  A    between atoms: _165  and  _167
REMARK   67  A    between atoms: _167  and  _168
REMARK   68  A    between atoms: _167  and  _170
REMARK   69  A    between atoms: _170  and  _171
REMARK   70  A    between atoms: _171  and  _172
REMARK   71  A    between atoms: _175  and  _177
REMARK   72  A    between atoms: _177  and  _178
REMARK   73  A    between atoms: _177  and  _180
REMARK   74  A    between atoms: _180  and  _181
REMARK   75  A    between atoms: _184  and  _186
REMARK   76  A    between atoms: _186  and  _187
REMARK   77  A    between atoms: _186  and  _189
REMARK   78  A    between atoms: _189  and  _190
REMARK   79  A    between atoms: _193  and  _195
REMARK   80  A    between atoms: _195  and  _196
REMARK   81  A    between atoms: _195  and  _198
REMARK   82  A    between atoms: _198  and  _199
REMARK   83  A    between atoms: _202  and  _204
REMARK   84  A    between atoms: _204  and  _205
REMARK   85  A    between atoms: _208  and  _210
REMARK   86  A    between atoms: _210  and  _211
REMARK   87  A    between atoms: _210  and  _213
REMARK   88  A    between atoms: _213  and  _214
REMARK   89  A    between atoms: _216  and  _218
REMARK   90  A    between atoms: _218  and  _219
REMARK   91  A    between atoms: _218  and  _221
REMARK   92  A    between atoms: _221  and  _222
REMARK   93  A    between atoms: _228  and  _230
REMARK   94  A    between atoms: _230  and  _231
REMARK   95  A    between atoms: _230  and  _233
REMARK   96  A    between atoms: _233  and  _234
REMARK   97  A    between atoms: _236  and  _238
REMARK   98  A    between atoms: _238  and  _239
REMARK   99  A    between atoms: _238  and  _241
REMARK  100  A    between atoms: _241  and  _242
REMARK  101  A    between atoms: _247  and  _249
REMARK  102  A    between atoms: _249  and  _250
REMARK  103  A    between atoms: _249  and  _252
REMARK  104  A    between atoms: _252  and  _253
REMARK  105  A    between atoms: _253  and  _254
REMARK  106  A    between atoms: _254  and  _255
REMARK  107  A    between atoms: _264  and  _266
REMARK  108  A    between atoms: _266  and  _267
REMARK  109  A    between atoms: _266  and  _269
REMARK  110  A    between atoms: _269  and  _270
REMARK  111  A    between atoms: _272  and  _274
REMARK  112  A    between atoms: _274  and  _275
REMARK  113  A    between atoms: _274  and  _277
REMARK  114  A    between atoms: _277  and  _278
REMARK  115  A    between atoms: _281  and  _283
REMARK  116  A    between atoms: _283  and  _284
REMARK  117  A    between atoms: _283  and  _286
REMARK  118  A    between atoms: _286  and  _287
REMARK  119  A    between atoms: _290  and  _292
REMARK  120  A    between atoms: _292  and  _293
REMARK  121  A    between atoms: _292  and  _295
REMARK  122  A    between atoms: _295  and  _296
REMARK  123  A    between atoms: _299  and  _301
REMARK  124  A    between atoms: _301  and  _302
REMARK  125  A    between atoms: _305  and  _307
REMARK  126  A    between atoms: _307  and  _308
REMARK  127  A    between atoms: _307  and  _310
REMARK  128  A    between atoms: _310  and  _311
REMARK  129  A    between atoms: _314  and  _316
REMARK  130  A    between atoms: _316  and  _317
REMARK  131  A    between atoms: _319  and  _321
REMARK  132  A    between atoms: _321  and  _322
REMARK  133  A    between atoms: _321  and  _324
REMARK  134  A    between atoms: _324  and  _325
REMARK  135  A    between atoms: _328  and  _330
REMARK  136  A    between atoms: _330  and  _331
REMARK  137  A    between atoms: _330  and  _333
REMARK  138  A    between atoms: _336  and  _338
REMARK  139  A    between atoms: _338  and  _339
REMARK  140  A    between atoms: _342  and  _344
REMARK  141  A    between atoms: _344  and  _345
REMARK  142  A    between atoms: _348  and  _350
REMARK  143  A    between atoms: _350  and  _351
REMARK  144  A    between atoms: _353  and  _355
REMARK  145  A    between atoms: _355  and  _356
REMARK  146  A    between atoms: _355  and  _358
REMARK  147  A    between atoms: _361  and  _363
REMARK  148  A    between atoms: _363  and  _364
REMARK  149  A    between atoms: _366  and  _368
REMARK  150  A    between atoms: _368  and  _369
REMARK  151  A    between atoms: _372  and  _374
REMARK  152  A    between atoms: _374  and  _375
REMARK  153  A    between atoms: _374  and  _377
REMARK  154  A    between atoms: _377  and  _378
REMARK  155  A    between atoms: _381  and  _383
REMARK  156  A    between atoms: _383  and  _384
REMARK  157  A    between atoms: _383  and  _386
REMARK  158  A    between atoms: _386  and  _387
REMARK  159  A    between atoms: _393  and  _395
REMARK  160  A    between atoms: _395  and  _396
REMARK  161  A    between atoms: _395  and  _398
REMARK  162  A    between atoms: _398  and  _399
REMARK  163  A    between atoms: _402  and  _404
REMARK  164  A    between atoms: _404  and  _405
REMARK  165  A    between atoms: _404  and  _407
REMARK  166  A    between atoms: _407  and  _408
REMARK  167  A    between atoms: _408  and  _409
REMARK  168  A    between atoms: _409  and  _410
REMARK  169  A    between atoms: _419  and  _421
REMARK  170  A    between atoms: _421  and  _422
REMARK  171  A    between atoms: _421  and  _424
REMARK  172  A    between atoms: _427  and  _429
REMARK  173  A    between atoms: _429  and  _430
REMARK  174  A    between atoms: _429  and  _432
REMARK  175  A    between atoms: _432  and  _433
REMARK  176  A    between atoms: _436  and  _438
REMARK  177  A    between atoms: _438  and  _439
REMARK  178  A    between atoms: _438  and  _441
REMARK  179  A    between atoms: _441  and  _442
REMARK  180  A    between atoms: _442  and  _443
REMARK  181  A    between atoms: _443  and  _444
REMARK  182  A    between atoms: _453  and  _455
REMARK  183  A    between atoms: _455  and  _456
REMARK  184  A    between atoms: _455  and  _458
REMARK  185  A    between atoms: _458  and  _459
REMARK  186  A    between atoms: _462  and  _464
REMARK  187  A    between atoms: _464  and  _465
REMARK  188  A    between atoms: _467  and  _469
REMARK  189  A    between atoms: _469  and  _470
REMARK  190  A    between atoms: _469  and  _472
REMARK  191  A    between atoms: _472  and  _473
REMARK  192  A    between atoms: _473  and  _474
REMARK  193  A    between atoms: _474  and  _475
REMARK  194  A    between atoms: _475  and  _476
REMARK  195  A    between atoms: _480  and  _482
REMARK  196  A    between atoms: _482  and  _483
REMARK  197  A    between atoms: _482  and  _485
REMARK  198  A    between atoms: _487  and  _489
REMARK  199  A    between atoms: _489  and  _490
REMARK  200  A    between atoms: _489  and  _492
REMARK  201  A    between atoms: _492  and  _493
REMARK  202  A    between atoms: _496  and  _498
REMARK  203  A    between atoms: _498  and  _499
REMARK  204  A    between atoms: _498  and  _501
REMARK  205  A    between atoms: _501  and  _502
REMARK  206  A    between atoms: _502  and  _503
REMARK  207  A    between atoms: _506  and  _508
REMARK  208  A    between atoms: _508  and  _509
REMARK  209  A    between atoms: _508  and  _511
REMARK  210  A    between atoms: _511  and  _512
REMARK  211  A    between atoms: _517  and  _519
REMARK  212  A    between atoms: _519  and  _520
REMARK  213  A    between atoms: _519  and  _522
REMARK  214  A    between atoms: _522  and  _523
REMARK  215  A    between atoms: _526  and  _528
REMARK  216  A    between atoms: _528  and  _529
REMARK  217  A    between atoms: _528  and  _531
REMARK  218  A    between atoms: _531  and  _532
REMARK  219  A    between atoms: _538  and  _540
REMARK  220  A    between atoms: _540  and  _541
REMARK  221  A    between atoms: _540  and  _543
REMARK  222  A    between atoms: _543  and  _544
REMARK  223  A    between atoms: _550  and  _552
REMARK  224  A    between atoms: _552  and  _553
REMARK  225  A    between atoms: _552  and  _555
REMARK  226  A    between atoms: _555  and  _556
REMARK  227  A    between atoms: _559  and  _561
REMARK  228  A    between atoms: _561  and  _562
REMARK  229  A    between atoms: _561  and  _564
REMARK  230  A    between atoms: _564  and  _565
REMARK  231  A    between atoms: _568  and  _570
REMARK  232  A    between atoms: _570  and  _571
REMARK  233  A    between atoms: _570  and  _573
REMARK  234  A    between atoms: _573  and  _574
REMARK                            x       y       z     vdW  Elec       q    Type
REMARK                         _______ _______ _______ _____ _____    ______ ____
ROOT
ATOM      1  CA  THR A   1      69.605  36.041  29.591  0.00  0.00    +0.160 C 
ENDROOT
BRANCH   1   2
ATOM      2  N   THR A   1      70.777  35.207  29.823  0.00  0.00    -0.237 NA
ATOM      3  H   THR A   1      70.662  34.309  30.335  0.00  0.00    +0.142 HD
ENDBRANCH   1   2
BRANCH   1   4
ATOM      4  CB  THR A   1      69.910  37.533  29.803  0.00  0.00    +0.134 C 
ATOM      5  CG2 THR A   1      68.631  38.351  29.712  0.00  0.00    +0.034 C 
BRANCH   4   6
ATOM      6  OG1 THR A   1      70.504  37.720  31.092  0.00  0.00    -0.383 OA
ATOM      7  HG1 THR A   1      71.345  37.200  31.145  0.00  0.00    +0.210 HD
ENDBRANCH   4   6
ENDBRANCH   1   4
BRANCH   1   8
ATOM      8  C   THR A   1      69.060  35.876  28.180  0.00  0.00    +0.227 C 
ATOM      9  O   THR A   1      69.660  36.336  27.207  0.00  0.00    -0.287 OA
ENDBRANCH   1   8
TORSDOF 4
REMARK  Name = ../refined-set-2016/4pp5/4pp5_pocket.pdb
REMARK  234 active torsions:
REMARK  status: ('A' for Active; 'I' for Inactive)
REMARK    1  A    between atoms: _1  and  _3
REMARK    2  A    between atoms: _3  and  _4
REMARK    3  A    between atoms: _3  and  _6
REMARK    4  A    between atoms: _6  and  _7
REMARK    5  A    between atoms: _7  and  _8
REMARK    6  A    between atoms: _12  and  _13
REMARK    7  A    between atoms: _18  and  _20
REMARK    8  A    between atoms: _20  and  _21
REMARK    9  A    between atoms: _20  and  _23
REMARK   10  A    between atoms: _26  and  _28
REMARK   11  A    between atoms: _28  and  _29
REMARK   12  A    between atoms: _28  and  _31
REMARK   13  A    between atoms: _31  and  _32
REMARK   14  A    between atoms: _35  and  _37
REMARK   15  A    between atoms: _37  and  _38
REMARK   16  A    between atoms: _37  and  _40
REMARK   17  A    between atoms: _40  and  _41
REMARK   18  A    between atoms: _46  and  _48
REMARK   19  A    between atoms: _48  and  _49
REMARK   20  A    between atoms: _48  and  _51
REMARK   21  A    between atoms: _51  and  _52
REMARK   22  A    between atoms: _55  and  _57
REMARK   23  A    between atoms: _57  and  _58
REMARK   24  A    between atoms: _57  and  _60
REMARK   25  A    between atoms: _62  and  _64
REMARK   26  A    between atoms: _64  and  _65
REMARK   27  A    between atoms: _64  and  _67
REMARK   28  A    between atoms: _67  and  _68
REMARK   29  A    between atoms: _68  and  _69
REMARK   30  A    between atoms: _74  and  _76
REMARK   31  A    between atoms: _76  and  _77
REMARK   32  A    between atoms: _80  and  _82
REMARK   33  A    between atoms: _82  and  _83
REMARK   34  A    between atoms: _86  and  _88
REMARK   35  A    between atoms: _88  and  _89
REMARK   36  A    between atoms: _88  and  _91
REMARK   37  A    between atoms: _91  and  _92
REMARK   38  A    between atoms: _95  and  _97
REMARK   39  A    between atoms: _97  and  _98
REMARK   40  A    between atoms: _97  and  _100
REMARK   41  A    between atoms: _100  and  _101
REMARK   42  A    between atoms: _101  and  _102
REMARK   43  A    between atoms: _102  and  _103
REMARK   44  A    between atoms: _103  and  _104
REMARK   45  A    between atoms: _108  and  _110
REMARK   46  A    between atoms: _110  and  _111
REMARK   47  A    between atoms: _110  and  _113
REMARK   48  A    between atoms: _113  and  _114
REMARK   49  A    between atoms: _114  and  _115
REMARK   50  A    between atoms: _120  and  _122
REMARK   51  A    between atoms: _122  and  _123
REMARK   52  A    between atoms: _122  and  _125
REMARK   53  A    between atoms: _125  and  _126
REMARK   54  A    between atoms: _129  and  _131
REMARK   55  A    between atoms: _131  and  _132
REMARK   56  A    between atoms: _131  and  _134
REMARK   57  A    between atoms: _134  and  _135
REMARK   58  A    between atoms: _138  and  _140
REMARK   59  A    between atoms: _140  and  _141
REMARK   60  A    between atoms: _140  and  _143
REMARK   61  A    between atoms: _143  and  _144
REMARK   62  A    between atoms: _154  and  _156
REMARK   63  A    between atoms: _156  and  _157
REMARK   64  A    between atoms: _156  and  _159
REMARK   65  A    between atoms: _159  and  _160
REMARK   66  A    between atoms: _165  and  _167
REMARK   67  A    between atoms: _167  and  _168
REMARK   68  A    between atoms: _167  and  _170
REMARK   69  A    between atoms: _170  and  _171
REMARK   70  A    between atoms: _171  and  _172
REMARK   71  A    between atoms: _175  and  _177
REMARK   72  A    between atoms: _177  and  _178
REMARK   73  A    between atoms: _177  and  _180
REMARK   74  A    between atoms: _180  and  _181
REMARK   75  A    between atoms: _184  and  _186
REMARK   76  A    between atoms: _186  and  _187
REMARK   77  A    between atoms: _186  and  _189
REMARK   78  A    between atoms: _189  and  _190
REMARK   79  A    between atoms: _193  and  _195
REMARK   80  A    between atoms: _195  and  _196
REMARK   81  A    between atoms: _195  and  _198
REMARK   82  A    between atoms: _198  and  _199
REMARK   83  A    between atoms: _202  and  _204
REMARK   84  A    between atoms: _204  and  _205
REMARK   85  A    between atoms: _208  and  _210
REMARK   86  A    between atoms: _210  and  _211
REMARK   87  A    between atoms: _210  and  _213
REMARK   88  A    between atoms: _213  and  _214
REMARK   89  A    between atoms: _216  and  _218
REMARK   90  A    between atoms: _218  and  _219
REMARK   91  A    between atoms: _218  and  _221
REMARK   92  A    between atoms: _221  and  _222
REMARK   93  A    between atoms: _228  and  _230
REMARK   94  A    between atoms: _230  and  _231
REMARK   95  A    between atoms: _230  and  _233
REMARK   96  A    between atoms: _233  and  _234
REMARK   97  A    between atoms: _236  and  _238
REMARK   98  A    between atoms: _238  and  _239
REMARK   99  A    between atoms: _238  and  _241
REMARK  100  A    between atoms: _241  and  _242
REMARK  101  A    between atoms: _247  and  _249
REMARK  102  A    between atoms: _249  and  _250
REMARK  103  A    between atoms: _249  and  _252
REMARK  104  A    between atoms: _252  and  _253
REMARK  105  A    between atoms: _253  and  _254
REMARK  106  A    between atoms: _254  and  _255
REMARK  107  A    between atoms: _264  and  _266
REMARK  108  A    between atoms: _266  and  _267
REMARK  109  A    between atoms: _266  and  _269
REMARK  110  A    between atoms: _269  and  _270
REMARK  111  A    between atoms: _272  and  _274
REMARK  112  A    between atoms: _274  and  _275
REMARK  113  A    between atoms: _274  and  _277
REMARK  114  A    between atoms: _277  and  _278
REMARK  115  A    between atoms: _281  and  _283
REMARK  116  A    between atoms: _283  and  _284
REMARK  117  A    between atoms: _283  and  _286
REMARK  118  A    between atoms: _286  and  _287
REMARK  119  A    between atoms: _290  and  _292
REMARK  120  A    between atoms: _292  and  _293
REMARK  121  A    between atoms: _292  and  _295
REMARK  122  A    between atoms: _295  and  _296
REMARK  123  A    between atoms: _299  and  _301
REMARK  124  A    between atoms: _301  and  _302
REMARK  125  A    between atoms: _305  and  _307
REMARK  126  A    between atoms: _307  and  _308
REMARK  127  A    between atoms: _307  and  _310
REMARK  128  A    between atoms: _310  and  _311
REMARK  129  A    between atoms: _314  and  _316
REMARK  130  A    between atoms: _316  and  _317
REMARK  131  A    between atoms: _319  and  _321
REMARK  132  A    between atoms: _321  and  _322
REMARK  133  A    between atoms: _321  and  _324
REMARK  134  A    between atoms: _324  and  _325
REMARK  135  A    between atoms: _328  and  _330
REMARK  136  A    between atoms: _330  and  _331
REMARK  137  A    between atoms: _330  and  _333
REMARK  138  A    between atoms: _336  and  _338
REMARK  139  A    between atoms: _338  and  _339
REMARK  140  A    between atoms: _342  and  _344
REMARK  141  A    between atoms: _344  and  _345
REMARK  142  A    between atoms: _348  and  _350
REMARK  143  A    between atoms: _350  and  _351
REMARK  144  A    between atoms: _353  and  _355
REMARK  145  A    between atoms: _355  and  _356
REMARK  146  A    between atoms: _355  and  _358
REMARK  147  A    between atoms: _361  and  _363
REMARK  148  A    between atoms: _363  and  _364
REMARK  149  A    between atoms: _366  and  _368
REMARK  150  A    between atoms: _368  and  _369
REMARK  151  A    between atoms: _372  and  _374
REMARK  152  A    between atoms: _374  and  _375
REMARK  153  A    between atoms: _374  and  _377
REMARK  154  A    between atoms: _377  and  _378
REMARK  155  A    between atoms: _381  and  _383
REMARK  156  A    between atoms: _383  and  _384
REMARK  157  A    between atoms: _383  and  _386
REMARK  158  A    between atoms: _386  and  _387
REMARK  159  A    between atoms: _393  and  _395
REMARK  160  A    between atoms: _395  and  _396
REMARK  161  A    between atoms: _395  and  _398
REMARK  162  A    between atoms: _398  and  _399
REMARK  163  A    between atoms: _402  and  _404
REMARK  164  A    between atoms: _404  and  _405
REMARK  165  A    between atoms: _404  and  _407
REMARK  166  A    between atoms: _407  and  _408
REMARK  167  A    between atoms: _408  and  _409
REMARK  168  A    between atoms: _409  and  _410
REMARK  169  A    between atoms: _419  and  _421
REMARK  170  A    between atoms: _421  and  _422
REMARK  171  A    between atoms: _421  and  _424
REMARK  172  A    between atoms: _427  and  _429
REMARK  173  A    between atoms: _429  and  _430
REMARK  174  A    between atoms: _429  and  _432
REMARK  175  A    between atoms: _432  and  _433
REMARK  176  A    between atoms: _436  and  _438
REMARK  177  A    between atoms: _438  and  _439
REMARK  178  A    between atoms: _438  and  _441
REMARK  179  A    between atoms: _441  and  _442
REMARK  180  A    between atoms: _442  and  _443
REMARK  181  A    between atoms: _443  and  _444
REMARK  182  A    between atoms: _453  and  _455
REMARK  183  A    between atoms: _455  and  _456
REMARK  184  A    between atoms: _455  and  _458
REMARK  185  A    between atoms: _458  and  _459
REMARK  186  A    between atoms: _462  and  _464
REMARK  187  A    between atoms: _464  and  _465
REMARK  188  A    between atoms: _467  and  _469
REMARK  189  A    between atoms: _469  and  _470
REMARK  190  A    between atoms: _469  and  _472
REMARK  191  A    between atoms: _472  and  _473
REMARK  192  A    between atoms: _473  and  _474
REMARK  193  A    between atoms: _474  and  _475
REMARK  194  A    between atoms: _475  and  _476
REMARK  195  A    between atoms: _480  and  _482
REMARK  196  A    between atoms: _482  and  _483
REMARK  197  A    between atoms: _482  and  _485
REMARK  198  A    between atoms: _487  and  _489
REMARK  199  A    between atoms: _489  and  _490
REMARK  200  A    between atoms: _489  and  _492
REMARK  201  A    between atoms: _492  and  _493
REMARK  202  A    between atoms: _496  and  _498
REMARK  203  A    between atoms: _498  and  _499
REMARK  204  A    between atoms: _498  and  _501
REMARK  205  A    between atoms: _501  and  _502
REMARK  206  A    between atoms: _502  and  _503
REMARK  207  A    between atoms: _506  and  _508
REMARK  208  A    between atoms: _508  and  _509
REMARK  209  A    between atoms: _508  and  _511
REMARK  210  A    between atoms: _511  and  _512
REMARK  211  A    between atoms: _517  and  _519
REMARK  212  A    between atoms: _519  and  _520
REMARK  213  A    between atoms: _519  and  _522
REMARK  214  A    between atoms: _522  and  _523
REMARK  215  A    between atoms: _526  and  _528
REMARK  216  A    between atoms: _528  and  _529
REMARK  217  A    between atoms: _528  and  _531
REMARK  218  A    between atoms: _531  and  _532
REMARK  219  A    between atoms: _538  and  _540
REMARK  220  A    between atoms: _540  and  _541
REMARK  221  A    between atoms: _540  and  _543
REMARK  222  A    between atoms: _543  and  _544
REMARK  223  A    between atoms: _550  and  _552
REMARK  224  A    between atoms: _552  and  _553
REMARK  225  A    between atoms: _552  and  _555
REMARK  226  A    between atoms: _555  and  _556
REMARK  227  A    between atoms: _559  and  _561
REMARK  228  A    between atoms: _561  and  _562
REMARK  229  A    between atoms: _561  and  _564
REMARK  230  A    between atoms: _564  and  _565
REMARK  231  A    between atoms: _568  and  _570
REMARK  232  A    between atoms: _570  and  _571
REMARK  233  A    between atoms: _570  and  _573
REMARK  234  A    between atoms: _573  and  _574
REMARK                            x       y       z     vdW  Elec       q    Type
REMARK                         _______ _______ _______ _____ _____    ______ ____
ROOT
ATOM      1  CA  LEU A   1      64.443  42.916  21.013  0.00  0.00    +0.133 C 
ENDROOT
BRANCH   1   2
ATOM      2  N   LEU A   1      63.497  42.201  20.167  0.00  0.00    -0.239 NA
ATOM      3  H   LEU A   1      62.982  41.379  20.542  0.00  0.00    +0.142 HD
ENDBRANCH   1   2
BRANCH   1   4
ATOM      4  C   LEU A   1      65.834  42.760  20.389  0.00  0.00    +0.224 C 
ATOM      5  O   LEU A   1      66.592  43.723  20.283  0.00  0.00    -0.287 OA
ENDBRANCH   1   4
BRANCH   1   6
ATOM      6  CB  LEU A   1      64.424  42.345  22.440  0.00  0.00    +0.025 C 
BRANCH   6   7
ATOM      7  CG  LEU A   1      65.362  42.993  23.468  0.00  0.00    +0.002 C 
ATOM      8  CD2 LEU A   1      65.095  42.405  24.846  0.00  0.00    +0.000 C 
ATOM      9  CD1 LEU A   1      65.158  44.503  23.496  0.00  0.00    +0.000 C 
ENDBRANCH   6   7
ENDBRANCH   1   6
TORSDOF 4
REMARK  Name = ../refined-set-2016/4pp5/4pp5_pocket.pdb
REMARK  234 active torsions:
REMARK  status: ('A' for Active; 'I' for Inactive)
REMARK    1  A    between atoms: _1  and  _3
REMARK    2  A    between atoms: _3  and  _4
REMARK    3  A    between atoms: _3  and  _6
REMARK    4  A    between atoms: _6  and  _7
REMARK    5  A    between atoms: _7  and  _8
REMARK    6  A    between atoms: _12  and  _13
REMARK    7  A    between atoms: _18  and  _20
REMARK    8  A    between atoms: _20  and  _21
REMARK    9  A    between atoms: _20  and  _23
REMARK   10  A    between atoms: _26  and  _28
REMARK   11  A    between atoms: _28  and  _29
REMARK   12  A    between atoms: _28  and  _31
REMARK   13  A    between atoms: _31  and  _32
REMARK   14  A    between atoms: _35  and  _37
REMARK   15  A    between atoms: _37  and  _38
REMARK   16  A    between atoms: _37  and  _40
REMARK   17  A    between atoms: _40  and  _41
REMARK   18  A    between atoms: _46  and  _48
REMARK   19  A    between atoms: _48  and  _49
REMARK   20  A    between atoms: _48  and  _51
REMARK   21  A    between atoms: _51  and  _52
REMARK   22  A    between atoms: _55  and  _57
REMARK   23  A    between atoms: _57  and  _58
REMARK   24  A    between atoms: _57  and  _60
REMARK   25  A    between atoms: _62  and  _64
REMARK   26  A    between atoms: _64  and  _65
REMARK   27  A    between atoms: _64  and  _67
REMARK   28  A    between atoms: _67  and  _68
REMARK   29  A    between atoms: _68  and  _69
REMARK   30  A    between atoms: _74  and  _76
REMARK   31  A    between atoms: _76  and  _77
REMARK   32  A    between atoms: _80  and  _82
REMARK   33  A    between atoms: _82  and  _83
REMARK   34  A    between atoms: _86  and  _88
REMARK   35  A    between atoms: _88  and  _89
REMARK   36  A    between atoms: _88  and  _91
REMARK   37  A    between atoms: _91  and  _92
REMARK   38  A    between atoms: _95  and  _97
REMARK   39  A    between atoms: _97  and  _98
REMARK   40  A    between atoms: _97  and  _100
REMARK   41  A    between atoms: _100  and  _101
REMARK   42  A    between atoms: _101  and  _102
REMARK   43  A    between atoms: _102  and  _103
REMARK   44  A    between atoms: _103  and  _104
REMARK   45  A    between atoms: _108  and  _110
REMARK   46  A    between atoms: _110  and  _111
REMARK   47  A    between atoms: _110  and  _113
REMARK   48  A    between atoms: _113  and  _114
REMARK   49  A    between atoms: _114  and  _115
REMARK   50  A    between atoms: _120  and  _122
REMARK   51  A    between atoms: _122  and  _123
REMARK   52  A    between atoms: _122  and  _125
REMARK   53  A    between atoms: _125  and  _126
REMARK   54  A    between atoms: _129  and  _131
REMARK   55  A    between atoms: _131  and  _132
REMARK   56  A    between atoms: _131  and  _134
REMARK   57  A    between atoms: _134  and  _135
REMARK   58  A    between atoms: _138  and  _140
REMARK   59  A    between atoms: _140  and  _141
REMARK   60  A    between atoms: _140  and  _143
REMARK   61  A    between atoms: _143  and  _144
REMARK   62  A    between atoms: _154  and  _156
REMARK   63  A    between atoms: _156  and  _157
REMARK   64  A    between atoms: _156  and  _159
REMARK   65  A    between atoms: _159  and  _160
REMARK   66  A    between atoms: _165  and  _167
REMARK   67  A    between atoms: _167  and  _168
REMARK   68  A    between atoms: _167  and  _170
REMARK   69  A    between atoms: _170  and  _171
REMARK   70  A    between atoms: _171  and  _172
REMARK   71  A    between atoms: _175  and  _177
REMARK   72  A    between atoms: _177  and  _178
REMARK   73  A    between atoms: _177  and  _180
REMARK   74  A    between atoms: _180  and  _181
REMARK   75  A    between atoms: _184  and  _186
REMARK   76  A    between atoms: _186  and  _187
REMARK   77  A    between atoms: _186  and  _189
REMARK   78  A    between atoms: _189  and  _190
REMARK   79  A    between atoms: _193  and  _195
REMARK   80  A    between atoms: _195  and  _196
REMARK   81  A    between atoms: _195  and  _198
REMARK   82  A    between atoms: _198  and  _199
REMARK   83  A    between atoms: _202  and  _204
REMARK   84  A    between atoms: _204  and  _205
REMARK   85  A    between atoms: _208  and  _210
REMARK   86  A    between atoms: _210  and  _211
REMARK   87  A    between atoms: _210  and  _213
REMARK   88  A    between atoms: _213  and  _214
REMARK   89  A    between atoms: _216  and  _218
REMARK   90  A    between atoms: _218  and  _219
REMARK   91  A    between atoms: _218  and  _221
REMARK   92  A    between atoms: _221  and  _222
REMARK   93  A    between atoms: _228  and  _230
REMARK   94  A    between atoms: _230  and  _231
REMARK   95  A    between atoms: _230  and  _233
REMARK   96  A    between atoms: _233  and  _234
REMARK   97  A    between atoms: _236  and  _238
REMARK   98  A    between atoms: _238  and  _239
REMARK   99  A    between atoms: _238  and  _241
REMARK  100  A    between atoms: _241  and  _242
REMARK  101  A    between atoms: _247  and  _249
REMARK  102  A    between atoms: _249  and  _250
REMARK  103  A    between atoms: _249  and  _252
REMARK  104  A    between atoms: _252  and  _253
REMARK  105  A    between atoms: _253  and  _254
REMARK  106  A    between atoms: _254  and  _255
REMARK  107  A    between atoms: _264  and  _266
REMARK  108  A    between atoms: _266  and  _267
REMARK  109  A    between atoms: _266  and  _269
REMARK  110  A    between atoms: _269  and  _270
REMARK  111  A    between atoms: _272  and  _274
REMARK  112  A    between atoms: _274  and  _275
REMARK  113  A    between atoms: _274  and  _277
REMARK  114  A    between atoms: _277  and  _278
REMARK  115  A    between atoms: _281  and  _283
REMARK  116  A    between atoms: _283  and  _284
REMARK  117  A    between atoms: _283  and  _286
REMARK  118  A    between atoms: _286  and  _287
REMARK  119  A    between atoms: _290  and  _292
REMARK  120  A    between atoms: _292  and  _293
REMARK  121  A    between atoms: _292  and  _295
REMARK  122  A    between atoms: _295  and  _296
REMARK  123  A    between atoms: _299  and  _301
REMARK  124  A    between atoms: _301  and  _302
REMARK  125  A    between atoms: _305  and  _307
REMARK  126  A    between atoms: _307  and  _308
REMARK  127  A    between atoms: _307  and  _310
REMARK  128  A    between atoms: _310  and  _311
REMARK  129  A    between atoms: _314  and  _316
REMARK  130  A    between atoms: _316  and  _317
REMARK  131  A    between atoms: _319  and  _321
REMARK  132  A    between atoms: _321  and  _322
REMARK  133  A    between atoms: _321  and  _324
REMARK  134  A    between atoms: _324  and  _325
REMARK  135  A    between atoms: _328  and  _330
REMARK  136  A    between atoms: _330  and  _331
REMARK  137  A    between atoms: _330  and  _333
REMARK  138  A    between atoms: _336  and  _338
REMARK  139  A    between atoms: _338  and  _339
REMARK  140  A    between atoms: _342  and  _344
REMARK  141  A    between atoms: _344  and  _345
REMARK  142  A    between atoms: _348  and  _350
REMARK  143  A    between atoms: _350  and  _351
REMARK  144  A    between atoms: _353  and  _355
REMARK  145  A    between atoms: _355  and  _356
REMARK  146  A    between atoms: _355  and  _358
REMARK  147  A    between atoms: _361  and  _363
REMARK  148  A    between atoms: _363  and  _364
REMARK  149  A    between atoms: _366  and  _368
REMARK  150  A    between atoms: _368  and  _369
REMARK  151  A    between atoms: _372  and  _374
REMARK  152  A    between atoms: _374  and  _375
REMARK  153  A    between atoms: _374  and  _377
REMARK  154  A    between atoms: _377  and  _378
REMARK  155  A    between atoms: _381  and  _383
REMARK  156  A    between atoms: _383  and  _384
REMARK  157  A    between atoms: _383  and  _386
REMARK  158  A    between atoms: _386  and  _387
REMARK  159  A    between atoms: _393  and  _395
REMARK  160  A    between atoms: _395  and  _396
REMARK  161  A    between atoms: _395  and  _398
REMARK  162  A    between atoms: _398  and  _399
REMARK  163  A    between atoms: _402  and  _404
REMARK  164  A    between atoms: _404  and  _405
REMARK  165  A    between atoms: _404  and  _407
REMARK  166  A    between atoms: _407  and  _408
REMARK  167  A    between atoms: _408  and  _409
REMARK  168  A    between atoms: _409  and  _410
REMARK  169  A    between atoms: _419  and  _421
REMARK  170  A    between atoms: _421  and  _422
REMARK  171  A    between atoms: _421  and  _424
REMARK  172  A    between atoms: _427  and  _429
REMARK  173  A    between atoms: _429  and  _430
REMARK  174  A    between atoms: _429  and  _432
REMARK  175  A    between atoms: _432  and  _433
REMARK  176  A    between atoms: _436  and  _438
REMARK  177  A    between atoms: _438  and  _439
REMARK  178  A    between atoms: _438  and  _441
REMARK  179  A    between atoms: _441  and  _442
REMARK  180  A    between atoms: _442  and  _443
REMARK  181  A    between atoms: _443  and  _444
REMARK  182  A    between atoms: _453  and  _455
REMARK  183  A    between atoms: _455  and  _456
REMARK  184  A    between atoms: _455  and  _458
REMARK  185  A    between atoms: _458  and  _459
REMARK  186  A    between atoms: _462  and  _464
REMARK  187  A    between atoms: _464  and  _465
REMARK  188  A    between atoms: _467  and  _469
REMARK  189  A    between atoms: _469  and  _470
REMARK  190  A    between atoms: _469  and  _472
REMARK  191  A    between atoms: _472  and  _473
REMARK  192  A    between atoms: _473  and  _474
REMARK  193  A    between atoms: _474  and  _475
REMARK  194  A    between atoms: _475  and  _476
REMARK  195  A    between atoms: _480  and  _482
REMARK  196  A    between atoms: _482  and  _483
REMARK  197  A    between atoms: _482  and  _485
REMARK  198  A    between atoms: _487  and  _489
REMARK  199  A    between atoms: _489  and  _490
REMARK  200  A    between atoms: _489  and  _492
REMARK  201  A    between atoms: _492  and  _493
REMARK  202  A    between atoms: _496  and  _498
REMARK  203  A    between atoms: _498  and  _499
REMARK  204  A    between atoms: _498  and  _501
REMARK  205  A    between atoms: _501  and  _502
REMARK  206  A    between atoms: _502  and  _503
REMARK  207  A    between atoms: _506  and  _508
REMARK  208  A    between atoms: _508  and  _509
REMARK  209  A    between atoms: _508  and  _511
REMARK  210  A    between atoms: _511  and  _512
REMARK  211  A    between atoms: _517  and  _519
REMARK  212  A    between atoms: _519  and  _520
REMARK  213  A    between atoms: _519  and  _522
REMARK  214  A    between atoms: _522  and  _523
REMARK  215  A    between atoms: _526  and  _528
REMARK  216  A    between atoms: _528  and  _529
REMARK  217  A    between atoms: _528  and  _531
REMARK  218  A    between atoms: _531  and  _532
REMARK  219  A    between atoms: _538  and  _540
REMARK  220  A    between atoms: _540  and  _541
REMARK  221  A    between atoms: _540  and  _543
REMARK  222  A    between atoms: _543  and  _544
REMARK  223  A    between atoms: _550  and  _552
REMARK  224  A    between atoms: _552  and  _553
REMARK  225  A    between atoms: _552  and  _555
REMARK  226  A    between atoms: _555  and  _556
REMARK  227  A    between atoms: _559  and  _561
REMARK  228  A    between atoms: _561  and  _562
REMARK  229  A    between atoms: _561  and  _564
REMARK  230  A    between atoms: _564  and  _565
REMARK  231  A    between atoms: _568  and  _570
REMARK  232  A    between atoms: _570  and  _571
REMARK  233  A    between atoms: _570  and  _573
REMARK  234  A    between atoms: _573  and  _574
REMARK                            x       y       z     vdW  Elec       q    Type
REMARK                         _______ _______ _______ _____ _____    ______ ____
ROOT
ATOM      1  CA  LEU A   1      70.159  45.640  19.170  0.00  0.00    +0.133 C 
ENDROOT
BRANCH   1   2
ATOM      2  N   LEU A   1      68.768  45.560  18.744  0.00  0.00    -0.239 NA
ATOM      3  H   LEU A   1      68.263  44.654  18.819  0.00  0.00    +0.142 HD
ENDBRANCH   1   2
BRANCH   1   4
ATOM      4  C   LEU A   1      71.095  45.466  17.969  0.00  0.00    +0.224 C 
ATOM      5  O   LEU A   1      72.317  45.560  18.105  0.00  0.00    -0.287 OA
ENDBRANCH   1   4
BRANCH   1   6
ATOM      6  CB  LEU A   1      70.452  44.568  20.225  0.00  0.00    +0.025 C 
BRANCH   6   7
ATOM      7  CG  LEU A   1      69.612  44.655  21.504  0.00  0.00    +0.002 C 
ATOM      8  CD2 LEU A   1      70.004  43.521  22.452  0.00  0.00    +0.000 C 
ATOM      9  CD1 LEU A   1      69.819  46.016  22.171  0.00  0.00    +0.000 C 
ENDBRANCH   6   7
ENDBRANCH   1   6
TORSDOF 4
REMARK  Name = ../refined-set-2016/4pp5/4pp5_pocket.pdb
REMARK  234 active torsions:
REMARK  status: ('A' for Active; 'I' for Inactive)
REMARK    1  A    between atoms: _1  and  _3
REMARK    2  A    between atoms: _3  and  _4
REMARK    3  A    between atoms: _3  and  _6
REMARK    4  A    between atoms: _6  and  _7
REMARK    5  A    between atoms: _7  and  _8
REMARK    6  A    between atoms: _12  and  _13
REMARK    7  A    between atoms: _18  and  _20
REMARK    8  A    between atoms: _20  and  _21
REMARK    9  A    between atoms: _20  and  _23
REMARK   10  A    between atoms: _26  and  _28
REMARK   11  A    between atoms: _28  and  _29
REMARK   12  A    between atoms: _28  and  _31
REMARK   13  A    between atoms: _31  and  _32
REMARK   14  A    between atoms: _35  and  _37
REMARK   15  A    between atoms: _37  and  _38
REMARK   16  A    between atoms: _37  and  _40
REMARK   17  A    between atoms: _40  and  _41
REMARK   18  A    between atoms: _46  and  _48
REMARK   19  A    between atoms: _48  and  _49
REMARK   20  A    between atoms: _48  and  _51
REMARK   21  A    between atoms: _51  and  _52
REMARK   22  A    between atoms: _55  and  _57
REMARK   23  A    between atoms: _57  and  _58
REMARK   24  A    between atoms: _57  and  _60
REMARK   25  A    between atoms: _62  and  _64
REMARK   26  A    between atoms: _64  and  _65
REMARK   27  A    between atoms: _64  and  _67
REMARK   28  A    between atoms: _67  and  _68
REMARK   29  A    between atoms: _68  and  _69
REMARK   30  A    between atoms: _74  and  _76
REMARK   31  A    between atoms: _76  and  _77
REMARK   32  A    between atoms: _80  and  _82
REMARK   33  A    between atoms: _82  and  _83
REMARK   34  A    between atoms: _86  and  _88
REMARK   35  A    between atoms: _88  and  _89
REMARK   36  A    between atoms: _88  and  _91
REMARK   37  A    between atoms: _91  and  _92
REMARK   38  A    between atoms: _95  and  _97
REMARK   39  A    between atoms: _97  and  _98
REMARK   40  A    between atoms: _97  and  _100
REMARK   41  A    between atoms: _100  and  _101
REMARK   42  A    between atoms: _101  and  _102
REMARK   43  A    between atoms: _102  and  _103
REMARK   44  A    between atoms: _103  and  _104
REMARK   45  A    between atoms: _108  and  _110
REMARK   46  A    between atoms: _110  and  _111
REMARK   47  A    between atoms: _110  and  _113
REMARK   48  A    between atoms: _113  and  _114
REMARK   49  A    between atoms: _114  and  _115
REMARK   50  A    between atoms: _120  and  _122
REMARK   51  A    between atoms: _122  and  _123
REMARK   52  A    between atoms: _122  and  _125
REMARK   53  A    between atoms: _125  and  _126
REMARK   54  A    between atoms: _129  and  _131
REMARK   55  A    between atoms: _131  and  _132
REMARK   56  A    between atoms: _131  and  _134
REMARK   57  A    between atoms: _134  and  _135
REMARK   58  A    between atoms: _138  and  _140
REMARK   59  A    between atoms: _140  and  _141
REMARK   60  A    between atoms: _140  and  _143
REMARK   61  A    between atoms: _143  and  _144
REMARK   62  A    between atoms: _154  and  _156
REMARK   63  A    between atoms: _156  and  _157
REMARK   64  A    between atoms: _156  and  _159
REMARK   65  A    between atoms: _159  and  _160
REMARK   66  A    between atoms: _165  and  _167
REMARK   67  A    between atoms: _167  and  _168
REMARK   68  A    between atoms: _167  and  _170
REMARK   69  A    between atoms: _170  and  _171
REMARK   70  A    between atoms: _171  and  _172
REMARK   71  A    between atoms: _175  and  _177
REMARK   72  A    between atoms: _177  and  _178
REMARK   73  A    between atoms: _177  and  _180
REMARK   74  A    between atoms: _180  and  _181
REMARK   75  A    between atoms: _184  and  _186
REMARK   76  A    between atoms: _186  and  _187
REMARK   77  A    between atoms: _186  and  _189
REMARK   78  A    between atoms: _189  and  _190
REMARK   79  A    between atoms: _193  and  _195
REMARK   80  A    between atoms: _195  and  _196
REMARK   81  A    between atoms: _195  and  _198
REMARK   82  A    between atoms: _198  and  _199
REMARK   83  A    between atoms: _202  and  _204
REMARK   84  A    between atoms: _204  and  _205
REMARK   85  A    between atoms: _208  and  _210
REMARK   86  A    between atoms: _210  and  _211
REMARK   87  A    between atoms: _210  and  _213
REMARK   88  A    between atoms: _213  and  _214
REMARK   89  A    between atoms: _216  and  _218
REMARK   90  A    between atoms: _218  and  _219
REMARK   91  A    between atoms: _218  and  _221
REMARK   92  A    between atoms: _221  and  _222
REMARK   93  A    between atoms: _228  and  _230
REMARK   94  A    between atoms: _230  and  _231
REMARK   95  A    between atoms: _230  and  _233
REMARK   96  A    between atoms: _233  and  _234
REMARK   97  A    between atoms: _236  and  _238
REMARK   98  A    between atoms: _238  and  _239
REMARK   99  A    between atoms: _238  and  _241
REMARK  100  A    between atoms: _241  and  _242
REMARK  101  A    between atoms: _247  and  _249
REMARK  102  A    between atoms: _249  and  _250
REMARK  103  A    between atoms: _249  and  _252
REMARK  104  A    between atoms: _252  and  _253
REMARK  105  A    between atoms: _253  and  _254
REMARK  106  A    between atoms: _254  and  _255
REMARK  107  A    between atoms: _264  and  _266
REMARK  108  A    between atoms: _266  and  _267
REMARK  109  A    between atoms: _266  and  _269
REMARK  110  A    between atoms: _269  and  _270
REMARK  111  A    between atoms: _272  and  _274
REMARK  112  A    between atoms: _274  and  _275
REMARK  113  A    between atoms: _274  and  _277
REMARK  114  A    between atoms: _277  and  _278
REMARK  115  A    between atoms: _281  and  _283
REMARK  116  A    between atoms: _283  and  _284
REMARK  117  A    between atoms: _283  and  _286
REMARK  118  A    between atoms: _286  and  _287
REMARK  119  A    between atoms: _290  and  _292
REMARK  120  A    between atoms: _292  and  _293
REMARK  121  A    between atoms: _292  and  _295
REMARK  122  A    between atoms: _295  and  _296
REMARK  123  A    between atoms: _299  and  _301
REMARK  124  A    between atoms: _301  and  _302
REMARK  125  A    between atoms: _305  and  _307
REMARK  126  A    between atoms: _307  and  _308
REMARK  127  A    between atoms: _307  and  _310
REMARK  128  A    between atoms: _310  and  _311
REMARK  129  A    between atoms: _314  and  _316
REMARK  130  A    between atoms: _316  and  _317
REMARK  131  A    between atoms: _319  and  _321
REMARK  132  A    between atoms: _321  and  _322
REMARK  133  A    between atoms: _321  and  _324
REMARK  134  A    between atoms: _324  and  _325
REMARK  135  A    between atoms: _328  and  _330
REMARK  136  A    between atoms: _330  and  _331
REMARK  137  A    between atoms: _330  and  _333
REMARK  138  A    between atoms: _336  and  _338
REMARK  139  A    between atoms: _338  and  _339
REMARK  140  A    between atoms: _342  and  _344
REMARK  141  A    between atoms: _344  and  _345
REMARK  142  A    between atoms: _348  and  _350
REMARK  143  A    between atoms: _350  and  _351
REMARK  144  A    between atoms: _353  and  _355
REMARK  145  A    between atoms: _355  and  _356
REMARK  146  A    between atoms: _355  and  _358
REMARK  147  A    between atoms: _361  and  _363
REMARK  148  A    between atoms: _363  and  _364
REMARK  149  A    between atoms: _366  and  _368
REMARK  150  A    between atoms: _368  and  _369
REMARK  151  A    between atoms: _372  and  _374
REMARK  152  A    between atoms: _374  and  _375
REMARK  153  A    between atoms: _374  and  _377
REMARK  154  A    between atoms: _377  and  _378
REMARK  155  A    between atoms: _381  and  _383
REMARK  156  A    between atoms: _383  and  _384
REMARK  157  A    between atoms: _383  and  _386
REMARK  158  A    between atoms: _386  and  _387
REMARK  159  A    between atoms: _393  and  _395
REMARK  160  A    between atoms: _395  and  _396
REMARK  161  A    between atoms: _395  and  _398
REMARK  162  A    between atoms: _398  and  _399
REMARK  163  A    between atoms: _402  and  _404
REMARK  164  A    between atoms: _404  and  _405
REMARK  165  A    between atoms: _404  and  _407
REMARK  166  A    between atoms: _407  and  _408
REMARK  167  A    between atoms: _408  and  _409
REMARK  168  A    between atoms: _409  and  _410
REMARK  169  A    between atoms: _419  and  _421
REMARK  170  A    between atoms: _421  and  _422
REMARK  171  A    between atoms: _421  and  _424
REMARK  172  A    between atoms: _427  and  _429
REMARK  173  A    between atoms: _429  and  _430
REMARK  174  A    between atoms: _429  and  _432
REMARK  175  A    between atoms: _432  and  _433
REMARK  176  A    between atoms: _436  and  _438
REMARK  177  A    between atoms: _438  and  _439
REMARK  178  A    between atoms: _438  and  _441
REMARK  179  A    between atoms: _441  and  _442
REMARK  180  A    between atoms: _442  and  _443
REMARK  181  A    between atoms: _443  and  _444
REMARK  182  A    between atoms: _453  and  _455
REMARK  183  A    between atoms: _455  and  _456
REMARK  184  A    between atoms: _455  and  _458
REMARK  185  A    between atoms: _458  and  _459
REMARK  186  A    between atoms: _462  and  _464
REMARK  187  A    between atoms: _464  and  _465
REMARK  188  A    between atoms: _467  and  _469
REMARK  189  A    between atoms: _469  and  _470
REMARK  190  A    between atoms: _469  and  _472
REMARK  191  A    between atoms: _472  and  _473
REMARK  192  A    between atoms: _473  and  _474
REMARK  193  A    between atoms: _474  and  _475
REMARK  194  A    between atoms: _475  and  _476
REMARK  195  A    between atoms: _480  and  _482
REMARK  196  A    between atoms: _482  and  _483
REMARK  197  A    between atoms: _482  and  _485
REMARK  198  A    between atoms: _487  and  _489
REMARK  199  A    between atoms: _489  and  _490
REMARK  200  A    between atoms: _489  and  _492
REMARK  201  A    between atoms: _492  and  _493
REMARK  202  A    between atoms: _496  and  _498
REMARK  203  A    between atoms: _498  and  _499
REMARK  204  A    between atoms: _498  and  _501
REMARK  205  A    between atoms: _501  and  _502
REMARK  206  A    between atoms: _502  and  _503
REMARK  207  A    between atoms: _506  and  _508
REMARK  208  A    between atoms: _508  and  _509
REMARK  209  A    between atoms: _508  and  _511
REMARK  210  A    between atoms: _511  and  _512
REMARK  211  A    between atoms: _517  and  _519
REMARK  212  A    between atoms: _519  and  _520
REMARK  213  A    between atoms: _519  and  _522
REMARK  214  A    between atoms: _522  and  _523
REMARK  215  A    between atoms: _526  and  _528
REMARK  216  A    between atoms: _528  and  _529
REMARK  217  A    between atoms: _528  and  _531
REMARK  218  A    between atoms: _531  and  _532
REMARK  219  A    between atoms: _538  and  _540
REMARK  220  A    between atoms: _540  and  _541
REMARK  221  A    between atoms: _540  and  _543
REMARK  222  A    between atoms: _543  and  _544
REMARK  223  A    between atoms: _550  and  _552
REMARK  224  A    between atoms: _552  and  _553
REMARK  225  A    between atoms: _552  and  _555
REMARK  226  A    between atoms: _555  and  _556
REMARK  227  A    between atoms: _559  and  _561
REMARK  228  A    between atoms: _561  and  _562
REMARK  229  A    between atoms: _561  and  _564
REMARK  230  A    between atoms: _564  and  _565
REMARK  231  A    between atoms: _568  and  _570
REMARK  232  A    between atoms: _570  and  _571
REMARK  233  A    between atoms: _570  and  _573
REMARK  234  A    between atoms: _573  and  _574
REMARK                            x       y       z     vdW  Elec       q    Type
REMARK                         _______ _______ _______ _____ _____    ______ ____
ROOT
ATOM      1  O   HOH     1      53.235  51.639  23.418  0.00  0.00    +0.000 OA
ENDROOT
TORSDOF 0
REMARK  Name = ../refined-set-2016/4pp5/4pp5_pocket.pdb
REMARK  234 active torsions:
REMARK  status: ('A' for Active; 'I' for Inactive)
REMARK    1  A    between atoms: _1  and  _3
REMARK    2  A    between atoms: _3  and  _4
REMARK    3  A    between atoms: _3  and  _6
REMARK    4  A    between atoms: _6  and  _7
REMARK    5  A    between atoms: _7  and  _8
REMARK    6  A    between atoms: _12  and  _13
REMARK    7  A    between atoms: _18  and  _20
REMARK    8  A    between atoms: _20  and  _21
REMARK    9  A    between atoms: _20  and  _23
REMARK   10  A    between atoms: _26  and  _28
REMARK   11  A    between atoms: _28  and  _29
REMARK   12  A    between atoms: _28  and  _31
REMARK   13  A    between atoms: _31  and  _32
REMARK   14  A    between atoms: _35  and  _37
REMARK   15  A    between atoms: _37  and  _38
REMARK   16  A    between atoms: _37  and  _40
REMARK   17  A    between atoms: _40  and  _41
REMARK   18  A    between atoms: _46  and  _48
REMARK   19  A    between atoms: _48  and  _49
REMARK   20  A    between atoms: _48  and  _51
REMARK   21  A    between atoms: _51  and  _52
REMARK   22  A    between atoms: _55  and  _57
REMARK   23  A    between atoms: _57  and  _58
REMARK   24  A    between atoms: _57  and  _60
REMARK   25  A    between atoms: _62  and  _64
REMARK   26  A    between atoms: _64  and  _65
REMARK   27  A    between atoms: _64  and  _67
REMARK   28  A    between atoms: _67  and  _68
REMARK   29  A    between atoms: _68  and  _69
REMARK   30  A    between atoms: _74  and  _76
REMARK   31  A    between atoms: _76  and  _77
REMARK   32  A    between atoms: _80  and  _82
REMARK   33  A    between atoms: _82  and  _83
REMARK   34  A    between atoms: _86  and  _88
REMARK   35  A    between atoms: _88  and  _89
REMARK   36  A    between atoms: _88  and  _91
REMARK   37  A    between atoms: _91  and  _92
REMARK   38  A    between atoms: _95  and  _97
REMARK   39  A    between atoms: _97  and  _98
REMARK   40  A    between atoms: _97  and  _100
REMARK   41  A    between atoms: _100  and  _101
REMARK   42  A    between atoms: _101  and  _102
REMARK   43  A    between atoms: _102  and  _103
REMARK   44  A    between atoms: _103  and  _104
REMARK   45  A    between atoms: _108  and  _110
REMARK   46  A    between atoms: _110  and  _111
REMARK   47  A    between atoms: _110  and  _113
REMARK   48  A    between atoms: _113  and  _114
REMARK   49  A    between atoms: _114  and  _115
REMARK   50  A    between atoms: _120  and  _122
REMARK   51  A    between atoms: _122  and  _123
REMARK   52  A    between atoms: _122  and  _125
REMARK   53  A    between atoms: _125  and  _126
REMARK   54  A    between atoms: _129  and  _131
REMARK   55  A    between atoms: _131  and  _132
REMARK   56  A    between atoms: _131  and  _134
REMARK   57  A    between atoms: _134  and  _135
REMARK   58  A    between atoms: _138  and  _140
REMARK   59  A    between atoms: _140  and  _141
REMARK   60  A    between atoms: _140  and  _143
REMARK   61  A    between atoms: _143  and  _144
REMARK   62  A    between atoms: _154  and  _156
REMARK   63  A    between atoms: _156  and  _157
REMARK   64  A    between atoms: _156  and  _159
REMARK   65  A    between atoms: _159  and  _160
REMARK   66  A    between atoms: _165  and  _167
REMARK   67  A    between atoms: _167  and  _168
REMARK   68  A    between atoms: _167  and  _170
REMARK   69  A    between atoms: _170  and  _171
REMARK   70  A    between atoms: _171  and  _172
REMARK   71  A    between atoms: _175  and  _177
REMARK   72  A    between atoms: _177  and  _178
REMARK   73  A    between atoms: _177  and  _180
REMARK   74  A    between atoms: _180  and  _181
REMARK   75  A    between atoms: _184  and  _186
REMARK   76  A    between atoms: _186  and  _187
REMARK   77  A    between atoms: _186  and  _189
REMARK   78  A    between atoms: _189  and  _190
REMARK   79  A    between atoms: _193  and  _195
REMARK   80  A    between atoms: _195  and  _196
REMARK   81  A    between atoms: _195  and  _198
REMARK   82  A    between atoms: _198  and  _199
REMARK   83  A    between atoms: _202  and  _204
REMARK   84  A    between atoms: _204  and  _205
REMARK   85  A    between atoms: _208  and  _210
REMARK   86  A    between atoms: _210  and  _211
REMARK   87  A    between atoms: _210  and  _213
REMARK   88  A    between atoms: _213  and  _214
REMARK   89  A    between atoms: _216  and  _218
REMARK   90  A    between atoms: _218  and  _219
REMARK   91  A    between atoms: _218  and  _221
REMARK   92  A    between atoms: _221  and  _222
REMARK   93  A    between atoms: _228  and  _230
REMARK   94  A    between atoms: _230  and  _231
REMARK   95  A    between atoms: _230  and  _233
REMARK   96  A    between atoms: _233  and  _234
REMARK   97  A    between atoms: _236  and  _238
REMARK   98  A    between atoms: _238  and  _239
REMARK   99  A    between atoms: _238  and  _241
REMARK  100  A    between atoms: _241  and  _242
REMARK  101  A    between atoms: _247  and  _249
REMARK  102  A    between atoms: _249  and  _250
REMARK  103  A    between atoms: _249  and  _252
REMARK  104  A    between atoms: _252  and  _253
REMARK  105  A    between atoms: _253  and  _254
REMARK  106  A    between atoms: _254  and  _255
REMARK  107  A    between atoms: _264  and  _266
REMARK  108  A    between atoms: _266  and  _267
REMARK  109  A    between atoms: _266  and  _269
REMARK  110  A    between atoms: _269  and  _270
REMARK  111  A    between atoms: _272  and  _274
REMARK  112  A    between atoms: _274  and  _275
REMARK  113  A    between atoms: _274  and  _277
REMARK  114  A    between atoms: _277  and  _278
REMARK  115  A    between atoms: _281  and  _283
REMARK  116  A    between atoms: _283  and  _284
REMARK  117  A    between atoms: _283  and  _286
REMARK  118  A    between atoms: _286  and  _287
REMARK  119  A    between atoms: _290  and  _292
REMARK  120  A    between atoms: _292  and  _293
REMARK  121  A    between atoms: _292  and  _295
REMARK  122  A    between atoms: _295  and  _296
REMARK  123  A    between atoms: _299  and  _301
REMARK  124  A    between atoms: _301  and  _302
REMARK  125  A    between atoms: _305  and  _307
REMARK  126  A    between atoms: _307  and  _308
REMARK  127  A    between atoms: _307  and  _310
REMARK  128  A    between atoms: _310  and  _311
REMARK  129  A    between atoms: _314  and  _316
REMARK  130  A    between atoms: _316  and  _317
REMARK  131  A    between atoms: _319  and  _321
REMARK  132  A    between atoms: _321  and  _322
REMARK  133  A    between atoms: _321  and  _324
REMARK  134  A    between atoms: _324  and  _325
REMARK  135  A    between atoms: _328  and  _330
REMARK  136  A    between atoms: _330  and  _331
REMARK  137  A    between atoms: _330  and  _333
REMARK  138  A    between atoms: _336  and  _338
REMARK  139  A    between atoms: _338  and  _339
REMARK  140  A    between atoms: _342  and  _344
REMARK  141  A    between atoms: _344  and  _345
REMARK  142  A    between atoms: _348  and  _350
REMARK  143  A    between atoms: _350  and  _351
REMARK  144  A    between atoms: _353  and  _355
REMARK  145  A    between atoms: _355  and  _356
REMARK  146  A    between atoms: _355  and  _358
REMARK  147  A    between atoms: _361  and  _363
REMARK  148  A    between atoms: _363  and  _364
REMARK  149  A    between atoms: _366  and  _368
REMARK  150  A    between atoms: _368  and  _369
REMARK  151  A    between atoms: _372  and  _374
REMARK  152  A    between atoms: _374  and  _375
REMARK  153  A    between atoms: _374  and  _377
REMARK  154  A    between atoms: _377  and  _378
REMARK  155  A    between atoms: _381  and  _383
REMARK  156  A    between atoms: _383  and  _384
REMARK  157  A    between atoms: _383  and  _386
REMARK  158  A    between atoms: _386  and  _387
REMARK  159  A    between atoms: _393  and  _395
REMARK  160  A    between atoms: _395  and  _396
REMARK  161  A    between atoms: _395  and  _398
REMARK  162  A    between atoms: _398  and  _399
REMARK  163  A    between atoms: _402  and  _404
REMARK  164  A    between atoms: _404  and  _405
REMARK  165  A    between atoms: _404  and  _407
REMARK  166  A    between atoms: _407  and  _408
REMARK  167  A    between atoms: _408  and  _409
REMARK  168  A    between atoms: _409  and  _410
REMARK  169  A    between atoms: _419  and  _421
REMARK  170  A    between atoms: _421  and  _422
REMARK  171  A    between atoms: _421  and  _424
REMARK  172  A    between atoms: _427  and  _429
REMARK  173  A    between atoms: _429  and  _430
REMARK  174  A    between atoms: _429  and  _432
REMARK  175  A    between atoms: _432  and  _433
REMARK  176  A    between atoms: _436  and  _438
REMARK  177  A    between atoms: _438  and  _439
REMARK  178  A    between atoms: _438  and  _441
REMARK  179  A    between atoms: _441  and  _442
REMARK  180  A    between atoms: _442  and  _443
REMARK  181  A    between atoms: _443  and  _444
REMARK  182  A    between atoms: _453  and  _455
REMARK  183  A    between atoms: _455  and  _456
REMARK  184  A    between atoms: _455  and  _458
REMARK  185  A    between atoms: _458  and  _459
REMARK  186  A    between atoms: _462  and  _464
REMARK  187  A    between atoms: _464  and  _465
REMARK  188  A    between atoms: _467  and  _469
REMARK  189  A    between atoms: _469  and  _470
REMARK  190  A    between atoms: _469  and  _472
REMARK  191  A    between atoms: _472  and  _473
REMARK  192  A    between atoms: _473  and  _474
REMARK  193  A    between atoms: _474  and  _475
REMARK  194  A    between atoms: _475  and  _476
REMARK  195  A    between atoms: _480  and  _482
REMARK  196  A    between atoms: _482  and  _483
REMARK  197  A    between atoms: _482  and  _485
REMARK  198  A    between atoms: _487  and  _489
REMARK  199  A    between atoms: _489  and  _490
REMARK  200  A    between atoms: _489  and  _492
REMARK  201  A    between atoms: _492  and  _493
REMARK  202  A    between atoms: _496  and  _498
REMARK  203  A    between atoms: _498  and  _499
REMARK  204  A    between atoms: _498  and  _501
REMARK  205  A    between atoms: _501  and  _502
REMARK  206  A    between atoms: _502  and  _503
REMARK  207  A    between atoms: _506  and  _508
REMARK  208  A    between atoms: _508  and  _509
REMARK  209  A    between atoms: _508  and  _511
REMARK  210  A    between atoms: _511  and  _512
REMARK  211  A    between atoms: _517  and  _519
REMARK  212  A    between atoms: _519  and  _520
REMARK  213  A    between atoms: _519  and  _522
REMARK  214  A    between atoms: _522  and  _523
REMARK  215  A    between atoms: _526  and  _528
REMARK  216  A    between atoms: _528  and  _529
REMARK  217  A    between atoms: _528  and  _531
REMARK  218  A    between atoms: _531  and  _532
REMARK  219  A    between atoms: _538  and  _540
REMARK  220  A    between atoms: _540  and  _541
REMARK  221  A    between atoms: _540  and  _543
REMARK  222  A    between atoms: _543  and  _544
REMARK  223  A    between atoms: _550  and  _552
REMARK  224  A    between atoms: _552  and  _553
REMARK  225  A    between atoms: _552  and  _555
REMARK  226  A    between atoms: _555  and  _556
REMARK  227  A    between atoms: _559  and  _561
REMARK  228  A    between atoms: _561  and  _562
REMARK  229  A    between atoms: _561  and  _564
REMARK  230  A    between atoms: _564  and  _565
REMARK  231  A    between atoms: _568  and  _570
REMARK  232  A    between atoms: _570  and  _571
REMARK  233  A    between atoms: _570  and  _573
REMARK  234  A    between atoms: _573  and  _574
REMARK                            x       y       z     vdW  Elec       q    Type
REMARK                         _______ _______ _______ _____ _____    ______ ____
ROOT
ATOM      1  O   HOH     1      56.550  49.801  27.959  0.00  0.00    +0.000 OA
ENDROOT
TORSDOF 0
REMARK  Name = ../refined-set-2016/4pp5/4pp5_pocket.pdb
REMARK  234 active torsions:
REMARK  status: ('A' for Active; 'I' for Inactive)
REMARK    1  A    between atoms: _1  and  _3
REMARK    2  A    between atoms: _3  and  _4
REMARK    3  A    between atoms: _3  and  _6
REMARK    4  A    between atoms: _6  and  _7
REMARK    5  A    between atoms: _7  and  _8
REMARK    6  A    between atoms: _12  and  _13
REMARK    7  A    between atoms: _18  and  _20
REMARK    8  A    between atoms: _20  and  _21
REMARK    9  A    between atoms: _20  and  _23
REMARK   10  A    between atoms: _26  and  _28
REMARK   11  A    between atoms: _28  and  _29
REMARK   12  A    between atoms: _28  and  _31
REMARK   13  A    between atoms: _31  and  _32
REMARK   14  A    between atoms: _35  and  _37
REMARK   15  A    between atoms: _37  and  _38
REMARK   16  A    between atoms: _37  and  _40
REMARK   17  A    between atoms: _40  and  _41
REMARK   18  A    between atoms: _46  and  _48
REMARK   19  A    between atoms: _48  and  _49
REMARK   20  A    between atoms: _48  and  _51
REMARK   21  A    between atoms: _51  and  _52
REMARK   22  A    between atoms: _55  and  _57
REMARK   23  A    between atoms: _57  and  _58
REMARK   24  A    between atoms: _57  and  _60
REMARK   25  A    between atoms: _62  and  _64
REMARK   26  A    between atoms: _64  and  _65
REMARK   27  A    between atoms: _64  and  _67
REMARK   28  A    between atoms: _67  and  _68
REMARK   29  A    between atoms: _68  and  _69
REMARK   30  A    between atoms: _74  and  _76
REMARK   31  A    between atoms: _76  and  _77
REMARK   32  A    between atoms: _80  and  _82
REMARK   33  A    between atoms: _82  and  _83
REMARK   34  A    between atoms: _86  and  _88
REMARK   35  A    between atoms: _88  and  _89
REMARK   36  A    between atoms: _88  and  _91
REMARK   37  A    between atoms: _91  and  _92
REMARK   38  A    between atoms: _95  and  _97
REMARK   39  A    between atoms: _97  and  _98
REMARK   40  A    between atoms: _97  and  _100
REMARK   41  A    between atoms: _100  and  _101
REMARK   42  A    between atoms: _101  and  _102
REMARK   43  A    between atoms: _102  and  _103
REMARK   44  A    between atoms: _103  and  _104
REMARK   45  A    between atoms: _108  and  _110
REMARK   46  A    between atoms: _110  and  _111
REMARK   47  A    between atoms: _110  and  _113
REMARK   48  A    between atoms: _113  and  _114
REMARK   49  A    between atoms: _114  and  _115
REMARK   50  A    between atoms: _120  and  _122
REMARK   51  A    between atoms: _122  and  _123
REMARK   52  A    between atoms: _122  and  _125
REMARK   53  A    between atoms: _125  and  _126
REMARK   54  A    between atoms: _129  and  _131
REMARK   55  A    between atoms: _131  and  _132
REMARK   56  A    between atoms: _131  and  _134
REMARK   57  A    between atoms: _134  and  _135
REMARK   58  A    between atoms: _138  and  _140
REMARK   59  A    between atoms: _140  and  _141
REMARK   60  A    between atoms: _140  and  _143
REMARK   61  A    between atoms: _143  and  _144
REMARK   62  A    between atoms: _154  and  _156
REMARK   63  A    between atoms: _156  and  _157
REMARK   64  A    between atoms: _156  and  _159
REMARK   65  A    between atoms: _159  and  _160
REMARK   66  A    between atoms: _165  and  _167
REMARK   67  A    between atoms: _167  and  _168
REMARK   68  A    between atoms: _167  and  _170
REMARK   69  A    between atoms: _170  and  _171
REMARK   70  A    between atoms: _171  and  _172
REMARK   71  A    between atoms: _175  and  _177
REMARK   72  A    between atoms: _177  and  _178
REMARK   73  A    between atoms: _177  and  _180
REMARK   74  A    between atoms: _180  and  _181
REMARK   75  A    between atoms: _184  and  _186
REMARK   76  A    between atoms: _186  and  _187
REMARK   77  A    between atoms: _186  and  _189
REMARK   78  A    between atoms: _189  and  _190
REMARK   79  A    between atoms: _193  and  _195
REMARK   80  A    between atoms: _195  and  _196
REMARK   81  A    between atoms: _195  and  _198
REMARK   82  A    between atoms: _198  and  _199
REMARK   83  A    between atoms: _202  and  _204
REMARK   84  A    between atoms: _204  and  _205
REMARK   85  A    between atoms: _208  and  _210
REMARK   86  A    between atoms: _210  and  _211
REMARK   87  A    between atoms: _210  and  _213
REMARK   88  A    between atoms: _213  and  _214
REMARK   89  A    between atoms: _216  and  _218
REMARK   90  A    between atoms: _218  and  _219
REMARK   91  A    between atoms: _218  and  _221
REMARK   92  A    between atoms: _221  and  _222
REMARK   93  A    between atoms: _228  and  _230
REMARK   94  A    between atoms: _230  and  _231
REMARK   95  A    between atoms: _230  and  _233
REMARK   96  A    between atoms: _233  and  _234
REMARK   97  A    between atoms: _236  and  _238
REMARK   98  A    between atoms: _238  and  _239
REMARK   99  A    between atoms: _238  and  _241
REMARK  100  A    between atoms: _241  and  _242
REMARK  101  A    between atoms: _247  and  _249
REMARK  102  A    between atoms: _249  and  _250
REMARK  103  A    between atoms: _249  and  _252
REMARK  104  A    between atoms: _252  and  _253
REMARK  105  A    between atoms: _253  and  _254
REMARK  106  A    between atoms: _254  and  _255
REMARK  107  A    between atoms: _264  and  _266
REMARK  108  A    between atoms: _266  and  _267
REMARK  109  A    between atoms: _266  and  _269
REMARK  110  A    between atoms: _269  and  _270
REMARK  111  A    between atoms: _272  and  _274
REMARK  112  A    between atoms: _274  and  _275
REMARK  113  A    between atoms: _274  and  _277
REMARK  114  A    between atoms: _277  and  _278
REMARK  115  A    between atoms: _281  and  _283
REMARK  116  A    between atoms: _283  and  _284
REMARK  117  A    between atoms: _283  and  _286
REMARK  118  A    between atoms: _286  and  _287
REMARK  119  A    between atoms: _290  and  _292
REMARK  120  A    between atoms: _292  and  _293
REMARK  121  A    between atoms: _292  and  _295
REMARK  122  A    between atoms: _295  and  _296
REMARK  123  A    between atoms: _299  and  _301
REMARK  124  A    between atoms: _301  and  _302
REMARK  125  A    between atoms: _305  and  _307
REMARK  126  A    between atoms: _307  and  _308
REMARK  127  A    between atoms: _307  and  _310
REMARK  128  A    between atoms: _310  and  _311
REMARK  129  A    between atoms: _314  and  _316
REMARK  130  A    between atoms: _316  and  _317
REMARK  131  A    between atoms: _319  and  _321
REMARK  132  A    between atoms: _321  and  _322
REMARK  133  A    between atoms: _321  and  _324
REMARK  134  A    between atoms: _324  and  _325
REMARK  135  A    between atoms: _328  and  _330
REMARK  136  A    between atoms: _330  and  _331
REMARK  137  A    between atoms: _330  and  _333
REMARK  138  A    between atoms: _336  and  _338
REMARK  139  A    between atoms: _338  and  _339
REMARK  140  A    between atoms: _342  and  _344
REMARK  141  A    between atoms: _344  and  _345
REMARK  142  A    between atoms: _348  and  _350
REMARK  143  A    between atoms: _350  and  _351
REMARK  144  A    between atoms: _353  and  _355
REMARK  145  A    between atoms: _355  and  _356
REMARK  146  A    between atoms: _355  and  _358
REMARK  147  A    between atoms: _361  and  _363
REMARK  148  A    between atoms: _363  and  _364
REMARK  149  A    between atoms: _366  and  _368
REMARK  150  A    between atoms: _368  and  _369
REMARK  151  A    between atoms: _372  and  _374
REMARK  152  A    between atoms: _374  and  _375
REMARK  153  A    between atoms: _374  and  _377
REMARK  154  A    between atoms: _377  and  _378
REMARK  155  A    between atoms: _381  and  _383
REMARK  156  A    between atoms: _383  and  _384
REMARK  157  A    between atoms: _383  and  _386
REMARK  158  A    between atoms: _386  and  _387
REMARK  159  A    between atoms: _393  and  _395
REMARK  160  A    between atoms: _395  and  _396
REMARK  161  A    between atoms: _395  and  _398
REMARK  162  A    between atoms: _398  and  _399
REMARK  163  A    between atoms: _402  and  _404
REMARK  164  A    between atoms: _404  and  _405
REMARK  165  A    between atoms: _404  and  _407
REMARK  166  A    between atoms: _407  and  _408
REMARK  167  A    between atoms: _408  and  _409
REMARK  168  A    between atoms: _409  and  _410
REMARK  169  A    between atoms: _419  and  _421
REMARK  170  A    between atoms: _421  and  _422
REMARK  171  A    between atoms: _421  and  _424
REMARK  172  A    between atoms: _427  and  _429
REMARK  173  A    between atoms: _429  and  _430
REMARK  174  A    between atoms: _429  and  _432
REMARK  175  A    between atoms: _432  and  _433
REMARK  176  A    between atoms: _436  and  _438
REMARK  177  A    between atoms: _438  and  _439
REMARK  178  A    between atoms: _438  and  _441
REMARK  179  A    between atoms: _441  and  _442
REMARK  180  A    between atoms: _442  and  _443
REMARK  181  A    between atoms: _443  and  _444
REMARK  182  A    between atoms: _453  and  _455
REMARK  183  A    between atoms: _455  and  _456
REMARK  184  A    between atoms: _455  and  _458
REMARK  185  A    between atoms: _458  and  _459
REMARK  186  A    between atoms: _462  and  _464
REMARK  187  A    between atoms: _464  and  _465
REMARK  188  A    between atoms: _467  and  _469
REMARK  189  A    between atoms: _469  and  _470
REMARK  190  A    between atoms: _469  and  _472
REMARK  191  A    between atoms: _472  and  _473
REMARK  192  A    between atoms: _473  and  _474
REMARK  193  A    between atoms: _474  and  _475
REMARK  194  A    between atoms: _475  and  _476
REMARK  195  A    between atoms: _480  and  _482
REMARK  196  A    between atoms: _482  and  _483
REMARK  197  A    between atoms: _482  and  _485
REMARK  198  A    between atoms: _487  and  _489
REMARK  199  A    between atoms: _489  and  _490
REMARK  200  A    between atoms: _489  and  _492
REMARK  201  A    between atoms: _492  and  _493
REMARK  202  A    between atoms: _496  and  _498
REMARK  203  A    between atoms: _498  and  _499
REMARK  204  A    between atoms: _498  and  _501
REMARK  205  A    between atoms: _501  and  _502
REMARK  206  A    between atoms: _502  and  _503
REMARK  207  A    between atoms: _506  and  _508
REMARK  208  A    between atoms: _508  and  _509
REMARK  209  A    between atoms: _508  and  _511
REMARK  210  A    between atoms: _511  and  _512
REMARK  211  A    between atoms: _517  and  _519
REMARK  212  A    between atoms: _519  and  _520
REMARK  213  A    between atoms: _519  and  _522
REMARK  214  A    between atoms: _522  and  _523
REMARK  215  A    between atoms: _526  and  _528
REMARK  216  A    between atoms: _528  and  _529
REMARK  217  A    between atoms: _528  and  _531
REMARK  218  A    between atoms: _531  and  _532
REMARK  219  A    between atoms: _538  and  _540
REMARK  220  A    between atoms: _540  and  _541
REMARK  221  A    between atoms: _540  and  _543
REMARK  222  A    between atoms: _543  and  _544
REMARK  223  A    between atoms: _550  and  _552
REMARK  224  A    between atoms: _552  and  _553
REMARK  225  A    between atoms: _552  and  _555
REMARK  226  A    between atoms: _555  and  _556
REMARK  227  A    between atoms: _559  and  _561
REMARK  228  A    between atoms: _561  and  _562
REMARK  229  A    between atoms: _561  and  _564
REMARK  230  A    between atoms: _564  and  _565
REMARK  231  A    between atoms: _568  and  _570
REMARK  232  A    between atoms: _570  and  _571
REMARK  233  A    between atoms: _570  and  _573
REMARK  234  A    between atoms: _573  and  _574
REMARK                            x       y       z     vdW  Elec       q    Type
REMARK                         _______ _______ _______ _____ _____    ______ ____
ROOT
ATOM      1  O   HOH     1      58.154  39.405  32.008  0.00  0.00    +0.000 OA
ENDROOT
TORSDOF 0
REMARK  Name = ../refined-set-2016/4pp5/4pp5_pocket.pdb
REMARK  234 active torsions:
REMARK  status: ('A' for Active; 'I' for Inactive)
REMARK    1  A    between atoms: _1  and  _3
REMARK    2  A    between atoms: _3  and  _4
REMARK    3  A    between atoms: _3  and  _6
REMARK    4  A    between atoms: _6  and  _7
REMARK    5  A    between atoms: _7  and  _8
REMARK    6  A    between atoms: _12  and  _13
REMARK    7  A    between atoms: _18  and  _20
REMARK    8  A    between atoms: _20  and  _21
REMARK    9  A    between atoms: _20  and  _23
REMARK   10  A    between atoms: _26  and  _28
REMARK   11  A    between atoms: _28  and  _29
REMARK   12  A    between atoms: _28  and  _31
REMARK   13  A    between atoms: _31  and  _32
REMARK   14  A    between atoms: _35  and  _37
REMARK   15  A    between atoms: _37  and  _38
REMARK   16  A    between atoms: _37  and  _40
REMARK   17  A    between atoms: _40  and  _41
REMARK   18  A    between atoms: _46  and  _48
REMARK   19  A    between atoms: _48  and  _49
REMARK   20  A    between atoms: _48  and  _51
REMARK   21  A    between atoms: _51  and  _52
REMARK   22  A    between atoms: _55  and  _57
REMARK   23  A    between atoms: _57  and  _58
REMARK   24  A    between atoms: _57  and  _60
REMARK   25  A    between atoms: _62  and  _64
REMARK   26  A    between atoms: _64  and  _65
REMARK   27  A    between atoms: _64  and  _67
REMARK   28  A    between atoms: _67  and  _68
REMARK   29  A    between atoms: _68  and  _69
REMARK   30  A    between atoms: _74  and  _76
REMARK   31  A    between atoms: _76  and  _77
REMARK   32  A    between atoms: _80  and  _82
REMARK   33  A    between atoms: _82  and  _83
REMARK   34  A    between atoms: _86  and  _88
REMARK   35  A    between atoms: _88  and  _89
REMARK   36  A    between atoms: _88  and  _91
REMARK   37  A    between atoms: _91  and  _92
REMARK   38  A    between atoms: _95  and  _97
REMARK   39  A    between atoms: _97  and  _98
REMARK   40  A    between atoms: _97  and  _100
REMARK   41  A    between atoms: _100  and  _101
REMARK   42  A    between atoms: _101  and  _102
REMARK   43  A    between atoms: _102  and  _103
REMARK   44  A    between atoms: _103  and  _104
REMARK   45  A    between atoms: _108  and  _110
REMARK   46  A    between atoms: _110  and  _111
REMARK   47  A    between atoms: _110  and  _113
REMARK   48  A    between atoms: _113  and  _114
REMARK   49  A    between atoms: _114  and  _115
REMARK   50  A    between atoms: _120  and  _122
REMARK   51  A    between atoms: _122  and  _123
REMARK   52  A    between atoms: _122  and  _125
REMARK   53  A    between atoms: _125  and  _126
REMARK   54  A    between atoms: _129  and  _131
REMARK   55  A    between atoms: _131  and  _132
REMARK   56  A    between atoms: _131  and  _134
REMARK   57  A    between atoms: _134  and  _135
REMARK   58  A    between atoms: _138  and  _140
REMARK   59  A    between atoms: _140  and  _141
REMARK   60  A    between atoms: _140  and  _143
REMARK   61  A    between atoms: _143  and  _144
REMARK   62  A    between atoms: _154  and  _156
REMARK   63  A    between atoms: _156  and  _157
REMARK   64  A    between atoms: _156  and  _159
REMARK   65  A    between atoms: _159  and  _160
REMARK   66  A    between atoms: _165  and  _167
REMARK   67  A    between atoms: _167  and  _168
REMARK   68  A    between atoms: _167  and  _170
REMARK   69  A    between atoms: _170  and  _171
REMARK   70  A    between atoms: _171  and  _172
REMARK   71  A    between atoms: _175  and  _177
REMARK   72  A    between atoms: _177  and  _178
REMARK   73  A    between atoms: _177  and  _180
REMARK   74  A    between atoms: _180  and  _181
REMARK   75  A    between atoms: _184  and  _186
REMARK   76  A    between atoms: _186  and  _187
REMARK   77  A    between atoms: _186  and  _189
REMARK   78  A    between atoms: _189  and  _190
REMARK   79  A    between atoms: _193  and  _195
REMARK   80  A    between atoms: _195  and  _196
REMARK   81  A    between atoms: _195  and  _198
REMARK   82  A    between atoms: _198  and  _199
REMARK   83  A    between atoms: _202  and  _204
REMARK   84  A    between atoms: _204  and  _205
REMARK   85  A    between atoms: _208  and  _210
REMARK   86  A    between atoms: _210  and  _211
REMARK   87  A    between atoms: _210  and  _213
REMARK   88  A    between atoms: _213  and  _214
REMARK   89  A    between atoms: _216  and  _218
REMARK   90  A    between atoms: _218  and  _219
REMARK   91  A    between atoms: _218  and  _221
REMARK   92  A    between atoms: _221  and  _222
REMARK   93  A    between atoms: _228  and  _230
REMARK   94  A    between atoms: _230  and  _231
REMARK   95  A    between atoms: _230  and  _233
REMARK   96  A    between atoms: _233  and  _234
REMARK   97  A    between atoms: _236  and  _238
REMARK   98  A    between atoms: _238  and  _239
REMARK   99  A    between atoms: _238  and  _241
REMARK  100  A    between atoms: _241  and  _242
REMARK  101  A    between atoms: _247  and  _249
REMARK  102  A    between atoms: _249  and  _250
REMARK  103  A    between atoms: _249  and  _252
REMARK  104  A    between atoms: _252  and  _253
REMARK  105  A    between atoms: _253  and  _254
REMARK  106  A    between atoms: _254  and  _255
REMARK  107  A    between atoms: _264  and  _266
REMARK  108  A    between atoms: _266  and  _267
REMARK  109  A    between atoms: _266  and  _269
REMARK  110  A    between atoms: _269  and  _270
REMARK  111  A    between atoms: _272  and  _274
REMARK  112  A    between atoms: _274  and  _275
REMARK  113  A    between atoms: _274  and  _277
REMARK  114  A    between atoms: _277  and  _278
REMARK  115  A    between atoms: _281  and  _283
REMARK  116  A    between atoms: _283  and  _284
REMARK  117  A    between atoms: _283  and  _286
REMARK  118  A    between atoms: _286  and  _287
REMARK  119  A    between atoms: _290  and  _292
REMARK  120  A    between atoms: _292  and  _293
REMARK  121  A    between atoms: _292  and  _295
REMARK  122  A    between atoms: _295  and  _296
REMARK  123  A    between atoms: _299  and  _301
REMARK  124  A    between atoms: _301  and  _302
REMARK  125  A    between atoms: _305  and  _307
REMARK  126  A    between atoms: _307  and  _308
REMARK  127  A    between atoms: _307  and  _310
REMARK  128  A    between atoms: _310  and  _311
REMARK  129  A    between atoms: _314  and  _316
REMARK  130  A    between atoms: _316  and  _317
REMARK  131  A    between atoms: _319  and  _321
REMARK  132  A    between atoms: _321  and  _322
REMARK  133  A    between atoms: _321  and  _324
REMARK  134  A    between atoms: _324  and  _325
REMARK  135  A    between atoms: _328  and  _330
REMARK  136  A    between atoms: _330  and  _331
REMARK  137  A    between atoms: _330  and  _333
REMARK  138  A    between atoms: _336  and  _338
REMARK  139  A    between atoms: _338  and  _339
REMARK  140  A    between atoms: _342  and  _344
REMARK  141  A    between atoms: _344  and  _345
REMARK  142  A    between atoms: _348  and  _350
REMARK  143  A    between atoms: _350  and  _351
REMARK  144  A    between atoms: _353  and  _355
REMARK  145  A    between atoms: _355  and  _356
REMARK  146  A    between atoms: _355  and  _358
REMARK  147  A    between atoms: _361  and  _363
REMARK  148  A    between atoms: _363  and  _364
REMARK  149  A    between atoms: _366  and  _368
REMARK  150  A    between atoms: _368  and  _369
REMARK  151  A    between atoms: _372  and  _374
REMARK  152  A    between atoms: _374  and  _375
REMARK  153  A    between atoms: _374  and  _377
REMARK  154  A    between atoms: _377  and  _378
REMARK  155  A    between atoms: _381  and  _383
REMARK  156  A    between atoms: _383  and  _384
REMARK  157  A    between atoms: _383  and  _386
REMARK  158  A    between atoms: _386  and  _387
REMARK  159  A    between atoms: _393  and  _395
REMARK  160  A    between atoms: _395  and  _396
REMARK  161  A    between atoms: _395  and  _398
REMARK  162  A    between atoms: _398  and  _399
REMARK  163  A    between atoms: _402  and  _404
REMARK  164  A    between atoms: _404  and  _405
REMARK  165  A    between atoms: _404  and  _407
REMARK  166  A    between atoms: _407  and  _408
REMARK  167  A    between atoms: _408  and  _409
REMARK  168  A    between atoms: _409  and  _410
REMARK  169  A    between atoms: _419  and  _421
REMARK  170  A    between atoms: _421  and  _422
REMARK  171  A    between atoms: _421  and  _424
REMARK  172  A    between atoms: _427  and  _429
REMARK  173  A    between atoms: _429  and  _430
REMARK  174  A    between atoms: _429  and  _432
REMARK  175  A    between atoms: _432  and  _433
REMARK  176  A    between atoms: _436  and  _438
REMARK  177  A    between atoms: _438  and  _439
REMARK  178  A    between atoms: _438  and  _441
REMARK  179  A    between atoms: _441  and  _442
REMARK  180  A    between atoms: _442  and  _443
REMARK  181  A    between atoms: _443  and  _444
REMARK  182  A    between atoms: _453  and  _455
REMARK  183  A    between atoms: _455  and  _456
REMARK  184  A    between atoms: _455  and  _458
REMARK  185  A    between atoms: _458  and  _459
REMARK  186  A    between atoms: _462  and  _464
REMARK  187  A    between atoms: _464  and  _465
REMARK  188  A    between atoms: _467  and  _469
REMARK  189  A    between atoms: _469  and  _470
REMARK  190  A    between atoms: _469  and  _472
REMARK  191  A    between atoms: _472  and  _473
REMARK  192  A    between atoms: _473  and  _474
REMARK  193  A    between atoms: _474  and  _475
REMARK  194  A    between atoms: _475  and  _476
REMARK  195  A    between atoms: _480  and  _482
REMARK  196  A    between atoms: _482  and  _483
REMARK  197  A    between atoms: _482  and  _485
REMARK  198  A    between atoms: _487  and  _489
REMARK  199  A    between atoms: _489  and  _490
REMARK  200  A    between atoms: _489  and  _492
REMARK  201  A    between atoms: _492  and  _493
REMARK  202  A    between atoms: _496  and  _498
REMARK  203  A    between atoms: _498  and  _499
REMARK  204  A    between atoms: _498  and  _501
REMARK  205  A    between atoms: _501  and  _502
REMARK  206  A    between atoms: _502  and  _503
REMARK  207  A    between atoms: _506  and  _508
REMARK  208  A    between atoms: _508  and  _509
REMARK  209  A    between atoms: _508  and  _511
REMARK  210  A    between atoms: _511  and  _512
REMARK  211  A    between atoms: _517  and  _519
REMARK  212  A    between atoms: _519  and  _520
REMARK  213  A    between atoms: _519  and  _522
REMARK  214  A    between atoms: _522  and  _523
REMARK  215  A    between atoms: _526  and  _528
REMARK  216  A    between atoms: _528  and  _529
REMARK  217  A    between atoms: _528  and  _531
REMARK  218  A    between atoms: _531  and  _532
REMARK  219  A    between atoms: _538  and  _540
REMARK  220  A    between atoms: _540  and  _541
REMARK  221  A    between atoms: _540  and  _543
REMARK  222  A    between atoms: _543  and  _544
REMARK  223  A    between atoms: _550  and  _552
REMARK  224  A    between atoms: _552  and  _553
REMARK  225  A    between atoms: _552  and  _555
REMARK  226  A    between atoms: _555  and  _556
REMARK  227  A    between atoms: _559  and  _561
REMARK  228  A    between atoms: _561  and  _562
REMARK  229  A    between atoms: _561  and  _564
REMARK  230  A    between atoms: _564  and  _565
REMARK  231  A    between atoms: _568  and  _570
REMARK  232  A    between atoms: _570  and  _571
REMARK  233  A    between atoms: _570  and  _573
REMARK  234  A    between atoms: _573  and  _574
REMARK                            x       y       z     vdW  Elec       q    Type
REMARK                         _______ _______ _______ _____ _____    ______ ____
ROOT
ATOM      1  O   HOH     1      51.090  44.663  24.940  0.00  0.00    +0.000 OA
ENDROOT
TORSDOF 0
REMARK  Name = ../refined-set-2016/4pp5/4pp5_pocket.pdb
REMARK  234 active torsions:
REMARK  status: ('A' for Active; 'I' for Inactive)
REMARK    1  A    between atoms: _1  and  _3
REMARK    2  A    between atoms: _3  and  _4
REMARK    3  A    between atoms: _3  and  _6
REMARK    4  A    between atoms: _6  and  _7
REMARK    5  A    between atoms: _7  and  _8
REMARK    6  A    between atoms: _12  and  _13
REMARK    7  A    between atoms: _18  and  _20
REMARK    8  A    between atoms: _20  and  _21
REMARK    9  A    between atoms: _20  and  _23
REMARK   10  A    between atoms: _26  and  _28
REMARK   11  A    between atoms: _28  and  _29
REMARK   12  A    between atoms: _28  and  _31
REMARK   13  A    between atoms: _31  and  _32
REMARK   14  A    between atoms: _35  and  _37
REMARK   15  A    between atoms: _37  and  _38
REMARK   16  A    between atoms: _37  and  _40
REMARK   17  A    between atoms: _40  and  _41
REMARK   18  A    between atoms: _46  and  _48
REMARK   19  A    between atoms: _48  and  _49
REMARK   20  A    between atoms: _48  and  _51
REMARK   21  A    between atoms: _51  and  _52
REMARK   22  A    between atoms: _55  and  _57
REMARK   23  A    between atoms: _57  and  _58
REMARK   24  A    between atoms: _57  and  _60
REMARK   25  A    between atoms: _62  and  _64
REMARK   26  A    between atoms: _64  and  _65
REMARK   27  A    between atoms: _64  and  _67
REMARK   28  A    between atoms: _67  and  _68
REMARK   29  A    between atoms: _68  and  _69
REMARK   30  A    between atoms: _74  and  _76
REMARK   31  A    between atoms: _76  and  _77
REMARK   32  A    between atoms: _80  and  _82
REMARK   33  A    between atoms: _82  and  _83
REMARK   34  A    between atoms: _86  and  _88
REMARK   35  A    between atoms: _88  and  _89
REMARK   36  A    between atoms: _88  and  _91
REMARK   37  A    between atoms: _91  and  _92
REMARK   38  A    between atoms: _95  and  _97
REMARK   39  A    between atoms: _97  and  _98
REMARK   40  A    between atoms: _97  and  _100
REMARK   41  A    between atoms: _100  and  _101
REMARK   42  A    between atoms: _101  and  _102
REMARK   43  A    between atoms: _102  and  _103
REMARK   44  A    between atoms: _103  and  _104
REMARK   45  A    between atoms: _108  and  _110
REMARK   46  A    between atoms: _110  and  _111
REMARK   47  A    between atoms: _110  and  _113
REMARK   48  A    between atoms: _113  and  _114
REMARK   49  A    between atoms: _114  and  _115
REMARK   50  A    between atoms: _120  and  _122
REMARK   51  A    between atoms: _122  and  _123
REMARK   52  A    between atoms: _122  and  _125
REMARK   53  A    between atoms: _125  and  _126
REMARK   54  A    between atoms: _129  and  _131
REMARK   55  A    between atoms: _131  and  _132
REMARK   56  A    between atoms: _131  and  _134
REMARK   57  A    between atoms: _134  and  _135
REMARK   58  A    between atoms: _138  and  _140
REMARK   59  A    between atoms: _140  and  _141
REMARK   60  A    between atoms: _140  and  _143
REMARK   61  A    between atoms: _143  and  _144
REMARK   62  A    between atoms: _154  and  _156
REMARK   63  A    between atoms: _156  and  _157
REMARK   64  A    between atoms: _156  and  _159
REMARK   65  A    between atoms: _159  and  _160
REMARK   66  A    between atoms: _165  and  _167
REMARK   67  A    between atoms: _167  and  _168
REMARK   68  A    between atoms: _167  and  _170
REMARK   69  A    between atoms: _170  and  _171
REMARK   70  A    between atoms: _171  and  _172
REMARK   71  A    between atoms: _175  and  _177
REMARK   72  A    between atoms: _177  and  _178
REMARK   73  A    between atoms: _177  and  _180
REMARK   74  A    between atoms: _180  and  _181
REMARK   75  A    between atoms: _184  and  _186
REMARK   76  A    between atoms: _186  and  _187
REMARK   77  A    between atoms: _186  and  _189
REMARK   78  A    between atoms: _189  and  _190
REMARK   79  A    between atoms: _193  and  _195
REMARK   80  A    between atoms: _195  and  _196
REMARK   81  A    between atoms: _195  and  _198
REMARK   82  A    between atoms: _198  and  _199
REMARK   83  A    between atoms: _202  and  _204
REMARK   84  A    between atoms: _204  and  _205
REMARK   85  A    between atoms: _208  and  _210
REMARK   86  A    between atoms: _210  and  _211
REMARK   87  A    between atoms: _210  and  _213
REMARK   88  A    between atoms: _213  and  _214
REMARK   89  A    between atoms: _216  and  _218
REMARK   90  A    between atoms: _218  and  _219
REMARK   91  A    between atoms: _218  and  _221
REMARK   92  A    between atoms: _221  and  _222
REMARK   93  A    between atoms: _228  and  _230
REMARK   94  A    between atoms: _230  and  _231
REMARK   95  A    between atoms: _230  and  _233
REMARK   96  A    between atoms: _233  and  _234
REMARK   97  A    between atoms: _236  and  _238
REMARK   98  A    between atoms: _238  and  _239
REMARK   99  A    between atoms: _238  and  _241
REMARK  100  A    between atoms: _241  and  _242
REMARK  101  A    between atoms: _247  and  _249
REMARK  102  A    between atoms: _249  and  _250
REMARK  103  A    between atoms: _249  and  _252
REMARK  104  A    between atoms: _252  and  _253
REMARK  105  A    between atoms: _253  and  _254
REMARK  106  A    between atoms: _254  and  _255
REMARK  107  A    between atoms: _264  and  _266
REMARK  108  A    between atoms: _266  and  _267
REMARK  109  A    between atoms: _266  and  _269
REMARK  110  A    between atoms: _269  and  _270
REMARK  111  A    between atoms: _272  and  _274
REMARK  112  A    between atoms: _274  and  _275
REMARK  113  A    between atoms: _274  and  _277
REMARK  114  A    between atoms: _277  and  _278
REMARK  115  A    between atoms: _281  and  _283
REMARK  116  A    between atoms: _283  and  _284
REMARK  117  A    between atoms: _283  and  _286
REMARK  118  A    between atoms: _286  and  _287
REMARK  119  A    between atoms: _290  and  _292
REMARK  120  A    between atoms: _292  and  _293
REMARK  121  A    between atoms: _292  and  _295
REMARK  122  A    between atoms: _295  and  _296
REMARK  123  A    between atoms: _299  and  _301
REMARK  124  A    between atoms: _301  and  _302
REMARK  125  A    between atoms: _305  and  _307
REMARK  126  A    between atoms: _307  and  _308
REMARK  127  A    between atoms: _307  and  _310
REMARK  128  A    between atoms: _310  and  _311
REMARK  129  A    between atoms: _314  and  _316
REMARK  130  A    between atoms: _316  and  _317
REMARK  131  A    between atoms: _319  and  _321
REMARK  132  A    between atoms: _321  and  _322
REMARK  133  A    between atoms: _321  and  _324
REMARK  134  A    between atoms: _324  and  _325
REMARK  135  A    between atoms: _328  and  _330
REMARK  136  A    between atoms: _330  and  _331
REMARK  137  A    between atoms: _330  and  _333
REMARK  138  A    between atoms: _336  and  _338
REMARK  139  A    between atoms: _338  and  _339
REMARK  140  A    between atoms: _342  and  _344
REMARK  141  A    between atoms: _344  and  _345
REMARK  142  A    between atoms: _348  and  _350
REMARK  143  A    between atoms: _350  and  _351
REMARK  144  A    between atoms: _353  and  _355
REMARK  145  A    between atoms: _355  and  _356
REMARK  146  A    between atoms: _355  and  _358
REMARK  147  A    between atoms: _361  and  _363
REMARK  148  A    between atoms: _363  and  _364
REMARK  149  A    between atoms: _366  and  _368
REMARK  150  A    between atoms: _368  and  _369
REMARK  151  A    between atoms: _372  and  _374
REMARK  152  A    between atoms: _374  and  _375
REMARK  153  A    between atoms: _374  and  _377
REMARK  154  A    between atoms: _377  and  _378
REMARK  155  A    between atoms: _381  and  _383
REMARK  156  A    between atoms: _383  and  _384
REMARK  157  A    between atoms: _383  and  _386
REMARK  158  A    between atoms: _386  and  _387
REMARK  159  A    between atoms: _393  and  _395
REMARK  160  A    between atoms: _395  and  _396
REMARK  161  A    between atoms: _395  and  _398
REMARK  162  A    between atoms: _398  and  _399
REMARK  163  A    between atoms: _402  and  _404
REMARK  164  A    between atoms: _404  and  _405
REMARK  165  A    between atoms: _404  and  _407
REMARK  166  A    between atoms: _407  and  _408
REMARK  167  A    between atoms: _408  and  _409
REMARK  168  A    between atoms: _409  and  _410
REMARK  169  A    between atoms: _419  and  _421
REMARK  170  A    between atoms: _421  and  _422
REMARK  171  A    between atoms: _421  and  _424
REMARK  172  A    between atoms: _427  and  _429
REMARK  173  A    between atoms: _429  and  _430
REMARK  174  A    between atoms: _429  and  _432
REMARK  175  A    between atoms: _432  and  _433
REMARK  176  A    between atoms: _436  and  _438
REMARK  177  A    between atoms: _438  and  _439
REMARK  178  A    between atoms: _438  and  _441
REMARK  179  A    between atoms: _441  and  _442
REMARK  180  A    between atoms: _442  and  _443
REMARK  181  A    between atoms: _443  and  _444
REMARK  182  A    between atoms: _453  and  _455
REMARK  183  A    between atoms: _455  and  _456
REMARK  184  A    between atoms: _455  and  _458
REMARK  185  A    between atoms: _458  and  _459
REMARK  186  A    between atoms: _462  and  _464
REMARK  187  A    between atoms: _464  and  _465
REMARK  188  A    between atoms: _467  and  _469
REMARK  189  A    between atoms: _469  and  _470
REMARK  190  A    between atoms: _469  and  _472
REMARK  191  A    between atoms: _472  and  _473
REMARK  192  A    between atoms: _473  and  _474
REMARK  193  A    between atoms: _474  and  _475
REMARK  194  A    between atoms: _475  and  _476
REMARK  195  A    between atoms: _480  and  _482
REMARK  196  A    between atoms: _482  and  _483
REMARK  197  A    between atoms: _482  and  _485
REMARK  198  A    between atoms: _487  and  _489
REMARK  199  A    between atoms: _489  and  _490
REMARK  200  A    between atoms: _489  and  _492
REMARK  201  A    between atoms: _492  and  _493
REMARK  202  A    between atoms: _496  and  _498
REMARK  203  A    between atoms: _498  and  _499
REMARK  204  A    between atoms: _498  and  _501
REMARK  205  A    between atoms: _501  and  _502
REMARK  206  A    between atoms: _502  and  _503
REMARK  207  A    between atoms: _506  and  _508
REMARK  208  A    between atoms: _508  and  _509
REMARK  209  A    between atoms: _508  and  _511
REMARK  210  A    between atoms: _511  and  _512
REMARK  211  A    between atoms: _517  and  _519
REMARK  212  A    between atoms: _519  and  _520
REMARK  213  A    between atoms: _519  and  _522
REMARK  214  A    between atoms: _522  and  _523
REMARK  215  A    between atoms: _526  and  _528
REMARK  216  A    between atoms: _528  and  _529
REMARK  217  A    between atoms: _528  and  _531
REMARK  218  A    between atoms: _531  and  _532
REMARK  219  A    between atoms: _538  and  _540
REMARK  220  A    between atoms: _540  and  _541
REMARK  221  A    between atoms: _540  and  _543
REMARK  222  A    between atoms: _543  and  _544
REMARK  223  A    between atoms: _550  and  _552
REMARK  224  A    between atoms: _552  and  _553
REMARK  225  A    between atoms: _552  and  _555
REMARK  226  A    between atoms: _555  and  _556
REMARK  227  A    between atoms: _559  and  _561
REMARK  228  A    between atoms: _561  and  _562
REMARK  229  A    between atoms: _561  and  _564
REMARK  230  A    between atoms: _564  and  _565
REMARK  231  A    between atoms: _568  and  _570
REMARK  232  A    between atoms: _570  and  _571
REMARK  233  A    between atoms: _570  and  _573
REMARK  234  A    between atoms: _573  and  _574
REMARK                            x       y       z     vdW  Elec       q    Type
REMARK                         _______ _______ _______ _____ _____    ______ ____
ROOT
ATOM      1  O   HOH     1      52.152  54.128  27.676  0.00  0.00    +0.000 OA
ENDROOT
TORSDOF 0
REMARK  Name = ../refined-set-2016/4pp5/4pp5_pocket.pdb
REMARK  234 active torsions:
REMARK  status: ('A' for Active; 'I' for Inactive)
REMARK    1  A    between atoms: _1  and  _3
REMARK    2  A    between atoms: _3  and  _4
REMARK    3  A    between atoms: _3  and  _6
REMARK    4  A    between atoms: _6  and  _7
REMARK    5  A    between atoms: _7  and  _8
REMARK    6  A    between atoms: _12  and  _13
REMARK    7  A    between atoms: _18  and  _20
REMARK    8  A    between atoms: _20  and  _21
REMARK    9  A    between atoms: _20  and  _23
REMARK   10  A    between atoms: _26  and  _28
REMARK   11  A    between atoms: _28  and  _29
REMARK   12  A    between atoms: _28  and  _31
REMARK   13  A    between atoms: _31  and  _32
REMARK   14  A    between atoms: _35  and  _37
REMARK   15  A    between atoms: _37  and  _38
REMARK   16  A    between atoms: _37  and  _40
REMARK   17  A    between atoms: _40  and  _41
REMARK   18  A    between atoms: _46  and  _48
REMARK   19  A    between atoms: _48  and  _49
REMARK   20  A    between atoms: _48  and  _51
REMARK   21  A    between atoms: _51  and  _52
REMARK   22  A    between atoms: _55  and  _57
REMARK   23  A    between atoms: _57  and  _58
REMARK   24  A    between atoms: _57  and  _60
REMARK   25  A    between atoms: _62  and  _64
REMARK   26  A    between atoms: _64  and  _65
REMARK   27  A    between atoms: _64  and  _67
REMARK   28  A    between atoms: _67  and  _68
REMARK   29  A    between atoms: _68  and  _69
REMARK   30  A    between atoms: _74  and  _76
REMARK   31  A    between atoms: _76  and  _77
REMARK   32  A    between atoms: _80  and  _82
REMARK   33  A    between atoms: _82  and  _83
REMARK   34  A    between atoms: _86  and  _88
REMARK   35  A    between atoms: _88  and  _89
REMARK   36  A    between atoms: _88  and  _91
REMARK   37  A    between atoms: _91  and  _92
REMARK   38  A    between atoms: _95  and  _97
REMARK   39  A    between atoms: _97  and  _98
REMARK   40  A    between atoms: _97  and  _100
REMARK   41  A    between atoms: _100  and  _101
REMARK   42  A    between atoms: _101  and  _102
REMARK   43  A    between atoms: _102  and  _103
REMARK   44  A    between atoms: _103  and  _104
REMARK   45  A    between atoms: _108  and  _110
REMARK   46  A    between atoms: _110  and  _111
REMARK   47  A    between atoms: _110  and  _113
REMARK   48  A    between atoms: _113  and  _114
REMARK   49  A    between atoms: _114  and  _115
REMARK   50  A    between atoms: _120  and  _122
REMARK   51  A    between atoms: _122  and  _123
REMARK   52  A    between atoms: _122  and  _125
REMARK   53  A    between atoms: _125  and  _126
REMARK   54  A    between atoms: _129  and  _131
REMARK   55  A    between atoms: _131  and  _132
REMARK   56  A    between atoms: _131  and  _134
REMARK   57  A    between atoms: _134  and  _135
REMARK   58  A    between atoms: _138  and  _140
REMARK   59  A    between atoms: _140  and  _141
REMARK   60  A    between atoms: _140  and  _143
REMARK   61  A    between atoms: _143  and  _144
REMARK   62  A    between atoms: _154  and  _156
REMARK   63  A    between atoms: _156  and  _157
REMARK   64  A    between atoms: _156  and  _159
REMARK   65  A    between atoms: _159  and  _160
REMARK   66  A    between atoms: _165  and  _167
REMARK   67  A    between atoms: _167  and  _168
REMARK   68  A    between atoms: _167  and  _170
REMARK   69  A    between atoms: _170  and  _171
REMARK   70  A    between atoms: _171  and  _172
REMARK   71  A    between atoms: _175  and  _177
REMARK   72  A    between atoms: _177  and  _178
REMARK   73  A    between atoms: _177  and  _180
REMARK   74  A    between atoms: _180  and  _181
REMARK   75  A    between atoms: _184  and  _186
REMARK   76  A    between atoms: _186  and  _187
REMARK   77  A    between atoms: _186  and  _189
REMARK   78  A    between atoms: _189  and  _190
REMARK   79  A    between atoms: _193  and  _195
REMARK   80  A    between atoms: _195  and  _196
REMARK   81  A    between atoms: _195  and  _198
REMARK   82  A    between atoms: _198  and  _199
REMARK   83  A    between atoms: _202  and  _204
REMARK   84  A    between atoms: _204  and  _205
REMARK   85  A    between atoms: _208  and  _210
REMARK   86  A    between atoms: _210  and  _211
REMARK   87  A    between atoms: _210  and  _213
REMARK   88  A    between atoms: _213  and  _214
REMARK   89  A    between atoms: _216  and  _218
REMARK   90  A    between atoms: _218  and  _219
REMARK   91  A    between atoms: _218  and  _221
REMARK   92  A    between atoms: _221  and  _222
REMARK   93  A    between atoms: _228  and  _230
REMARK   94  A    between atoms: _230  and  _231
REMARK   95  A    between atoms: _230  and  _233
REMARK   96  A    between atoms: _233  and  _234
REMARK   97  A    between atoms: _236  and  _238
REMARK   98  A    between atoms: _238  and  _239
REMARK   99  A    between atoms: _238  and  _241
REMARK  100  A    between atoms: _241  and  _242
REMARK  101  A    between atoms: _247  and  _249
REMARK  102  A    between atoms: _249  and  _250
REMARK  103  A    between atoms: _249  and  _252
REMARK  104  A    between atoms: _252  and  _253
REMARK  105  A    between atoms: _253  and  _254
REMARK  106  A    between atoms: _254  and  _255
REMARK  107  A    between atoms: _264  and  _266
REMARK  108  A    between atoms: _266  and  _267
REMARK  109  A    between atoms: _266  and  _269
REMARK  110  A    between atoms: _269  and  _270
REMARK  111  A    between atoms: _272  and  _274
REMARK  112  A    between atoms: _274  and  _275
REMARK  113  A    between atoms: _274  and  _277
REMARK  114  A    between atoms: _277  and  _278
REMARK  115  A    between atoms: _281  and  _283
REMARK  116  A    between atoms: _283  and  _284
REMARK  117  A    between atoms: _283  and  _286
REMARK  118  A    between atoms: _286  and  _287
REMARK  119  A    between atoms: _290  and  _292
REMARK  120  A    between atoms: _292  and  _293
REMARK  121  A    between atoms: _292  and  _295
REMARK  122  A    between atoms: _295  and  _296
REMARK  123  A    between atoms: _299  and  _301
REMARK  124  A    between atoms: _301  and  _302
REMARK  125  A    between atoms: _305  and  _307
REMARK  126  A    between atoms: _307  and  _308
REMARK  127  A    between atoms: _307  and  _310
REMARK  128  A    between atoms: _310  and  _311
REMARK  129  A    between atoms: _314  and  _316
REMARK  130  A    between atoms: _316  and  _317
REMARK  131  A    between atoms: _319  and  _321
REMARK  132  A    between atoms: _321  and  _322
REMARK  133  A    between atoms: _321  and  _324
REMARK  134  A    between atoms: _324  and  _325
REMARK  135  A    between atoms: _328  and  _330
REMARK  136  A    between atoms: _330  and  _331
REMARK  137  A    between atoms: _330  and  _333
REMARK  138  A    between atoms: _336  and  _338
REMARK  139  A    between atoms: _338  and  _339
REMARK  140  A    between atoms: _342  and  _344
REMARK  141  A    between atoms: _344  and  _345
REMARK  142  A    between atoms: _348  and  _350
REMARK  143  A    between atoms: _350  and  _351
REMARK  144  A    between atoms: _353  and  _355
REMARK  145  A    between atoms: _355  and  _356
REMARK  146  A    between atoms: _355  and  _358
REMARK  147  A    between atoms: _361  and  _363
REMARK  148  A    between atoms: _363  and  _364
REMARK  149  A    between atoms: _366  and  _368
REMARK  150  A    between atoms: _368  and  _369
REMARK  151  A    between atoms: _372  and  _374
REMARK  152  A    between atoms: _374  and  _375
REMARK  153  A    between atoms: _374  and  _377
REMARK  154  A    between atoms: _377  and  _378
REMARK  155  A    between atoms: _381  and  _383
REMARK  156  A    between atoms: _383  and  _384
REMARK  157  A    between atoms: _383  and  _386
REMARK  158  A    between atoms: _386  and  _387
REMARK  159  A    between atoms: _393  and  _395
REMARK  160  A    between atoms: _395  and  _396
REMARK  161  A    between atoms: _395  and  _398
REMARK  162  A    between atoms: _398  and  _399
REMARK  163  A    between atoms: _402  and  _404
REMARK  164  A    between atoms: _404  and  _405
REMARK  165  A    between atoms: _404  and  _407
REMARK  166  A    between atoms: _407  and  _408
REMARK  167  A    between atoms: _408  and  _409
REMARK  168  A    between atoms: _409  and  _410
REMARK  169  A    between atoms: _419  and  _421
REMARK  170  A    between atoms: _421  and  _422
REMARK  171  A    between atoms: _421  and  _424
REMARK  172  A    between atoms: _427  and  _429
REMARK  173  A    between atoms: _429  and  _430
REMARK  174  A    between atoms: _429  and  _432
REMARK  175  A    between atoms: _432  and  _433
REMARK  176  A    between atoms: _436  and  _438
REMARK  177  A    between atoms: _438  and  _439
REMARK  178  A    between atoms: _438  and  _441
REMARK  179  A    between atoms: _441  and  _442
REMARK  180  A    between atoms: _442  and  _443
REMARK  181  A    between atoms: _443  and  _444
REMARK  182  A    between atoms: _453  and  _455
REMARK  183  A    between atoms: _455  and  _456
REMARK  184  A    between atoms: _455  and  _458
REMARK  185  A    between atoms: _458  and  _459
REMARK  186  A    between atoms: _462  and  _464
REMARK  187  A    between atoms: _464  and  _465
REMARK  188  A    between atoms: _467  and  _469
REMARK  189  A    between atoms: _469  and  _470
REMARK  190  A    between atoms: _469  and  _472
REMARK  191  A    between atoms: _472  and  _473
REMARK  192  A    between atoms: _473  and  _474
REMARK  193  A    between atoms: _474  and  _475
REMARK  194  A    between atoms: _475  and  _476
REMARK  195  A    between atoms: _480  and  _482
REMARK  196  A    between atoms: _482  and  _483
REMARK  197  A    between atoms: _482  and  _485
REMARK  198  A    between atoms: _487  and  _489
REMARK  199  A    between atoms: _489  and  _490
REMARK  200  A    between atoms: _489  and  _492
REMARK  201  A    between atoms: _492  and  _493
REMARK  202  A    between atoms: _496  and  _498
REMARK  203  A    between atoms: _498  and  _499
REMARK  204  A    between atoms: _498  and  _501
REMARK  205  A    between atoms: _501  and  _502
REMARK  206  A    between atoms: _502  and  _503
REMARK  207  A    between atoms: _506  and  _508
REMARK  208  A    between atoms: _508  and  _509
REMARK  209  A    between atoms: _508  and  _511
REMARK  210  A    between atoms: _511  and  _512
REMARK  211  A    between atoms: _517  and  _519
REMARK  212  A    between atoms: _519  and  _520
REMARK  213  A    between atoms: _519  and  _522
REMARK  214  A    between atoms: _522  and  _523
REMARK  215  A    between atoms: _526  and  _528
REMARK  216  A    between atoms: _528  and  _529
REMARK  217  A    between atoms: _528  and  _531
REMARK  218  A    between atoms: _531  and  _532
REMARK  219  A    between atoms: _538  and  _540
REMARK  220  A    between atoms: _540  and  _541
REMARK  221  A    between atoms: _540  and  _543
REMARK  222  A    between atoms: _543  and  _544
REMARK  223  A    between atoms: _550  and  _552
REMARK  224  A    between atoms: _552  and  _553
REMARK  225  A    between atoms: _552  and  _555
REMARK  226  A    between atoms: _555  and  _556
REMARK  227  A    between atoms: _559  and  _561
REMARK  228  A    between atoms: _561  and  _562
REMARK  229  A    between atoms: _561  and  _564
REMARK  230  A    between atoms: _564  and  _565
REMARK  231  A    between atoms: _568  and  _570
REMARK  232  A    between atoms: _570  and  _571
REMARK  233  A    between atoms: _570  and  _573
REMARK  234  A    between atoms: _573  and  _574
REMARK                            x       y       z     vdW  Elec       q    Type
REMARK                         _______ _______ _______ _____ _____    ______ ____
ROOT
ATOM      1  O   HOH     1      54.472  49.542  23.665  0.00  0.00    +0.000 OA
ENDROOT
TORSDOF 0
REMARK  Name = ../refined-set-2016/4pp5/4pp5_pocket.pdb
REMARK  234 active torsions:
REMARK  status: ('A' for Active; 'I' for Inactive)
REMARK    1  A    between atoms: _1  and  _3
REMARK    2  A    between atoms: _3  and  _4
REMARK    3  A    between atoms: _3  and  _6
REMARK    4  A    between atoms: _6  and  _7
REMARK    5  A    between atoms: _7  and  _8
REMARK    6  A    between atoms: _12  and  _13
REMARK    7  A    between atoms: _18  and  _20
REMARK    8  A    between atoms: _20  and  _21
REMARK    9  A    between atoms: _20  and  _23
REMARK   10  A    between atoms: _26  and  _28
REMARK   11  A    between atoms: _28  and  _29
REMARK   12  A    between atoms: _28  and  _31
REMARK   13  A    between atoms: _31  and  _32
REMARK   14  A    between atoms: _35  and  _37
REMARK   15  A    between atoms: _37  and  _38
REMARK   16  A    between atoms: _37  and  _40
REMARK   17  A    between atoms: _40  and  _41
REMARK   18  A    between atoms: _46  and  _48
REMARK   19  A    between atoms: _48  and  _49
REMARK   20  A    between atoms: _48  and  _51
REMARK   21  A    between atoms: _51  and  _52
REMARK   22  A    between atoms: _55  and  _57
REMARK   23  A    between atoms: _57  and  _58
REMARK   24  A    between atoms: _57  and  _60
REMARK   25  A    between atoms: _62  and  _64
REMARK   26  A    between atoms: _64  and  _65
REMARK   27  A    between atoms: _64  and  _67
REMARK   28  A    between atoms: _67  and  _68
REMARK   29  A    between atoms: _68  and  _69
REMARK   30  A    between atoms: _74  and  _76
REMARK   31  A    between atoms: _76  and  _77
REMARK   32  A    between atoms: _80  and  _82
REMARK   33  A    between atoms: _82  and  _83
REMARK   34  A    between atoms: _86  and  _88
REMARK   35  A    between atoms: _88  and  _89
REMARK   36  A    between atoms: _88  and  _91
REMARK   37  A    between atoms: _91  and  _92
REMARK   38  A    between atoms: _95  and  _97
REMARK   39  A    between atoms: _97  and  _98
REMARK   40  A    between atoms: _97  and  _100
REMARK   41  A    between atoms: _100  and  _101
REMARK   42  A    between atoms: _101  and  _102
REMARK   43  A    between atoms: _102  and  _103
REMARK   44  A    between atoms: _103  and  _104
REMARK   45  A    between atoms: _108  and  _110
REMARK   46  A    between atoms: _110  and  _111
REMARK   47  A    between atoms: _110  and  _113
REMARK   48  A    between atoms: _113  and  _114
REMARK   49  A    between atoms: _114  and  _115
REMARK   50  A    between atoms: _120  and  _122
REMARK   51  A    between atoms: _122  and  _123
REMARK   52  A    between atoms: _122  and  _125
REMARK   53  A    between atoms: _125  and  _126
REMARK   54  A    between atoms: _129  and  _131
REMARK   55  A    between atoms: _131  and  _132
REMARK   56  A    between atoms: _131  and  _134
REMARK   57  A    between atoms: _134  and  _135
REMARK   58  A    between atoms: _138  and  _140
REMARK   59  A    between atoms: _140  and  _141
REMARK   60  A    between atoms: _140  and  _143
REMARK   61  A    between atoms: _143  and  _144
REMARK   62  A    between atoms: _154  and  _156
REMARK   63  A    between atoms: _156  and  _157
REMARK   64  A    between atoms: _156  and  _159
REMARK   65  A    between atoms: _159  and  _160
REMARK   66  A    between atoms: _165  and  _167
REMARK   67  A    between atoms: _167  and  _168
REMARK   68  A    between atoms: _167  and  _170
REMARK   69  A    between atoms: _170  and  _171
REMARK   70  A    between atoms: _171  and  _172
REMARK   71  A    between atoms: _175  and  _177
REMARK   72  A    between atoms: _177  and  _178
REMARK   73  A    between atoms: _177  and  _180
REMARK   74  A    between atoms: _180  and  _181
REMARK   75  A    between atoms: _184  and  _186
REMARK   76  A    between atoms: _186  and  _187
REMARK   77  A    between atoms: _186  and  _189
REMARK   78  A    between atoms: _189  and  _190
REMARK   79  A    between atoms: _193  and  _195
REMARK   80  A    between atoms: _195  and  _196
REMARK   81  A    between atoms: _195  and  _198
REMARK   82  A    between atoms: _198  and  _199
REMARK   83  A    between atoms: _202  and  _204
REMARK   84  A    between atoms: _204  and  _205
REMARK   85  A    between atoms: _208  and  _210
REMARK   86  A    between atoms: _210  and  _211
REMARK   87  A    between atoms: _210  and  _213
REMARK   88  A    between atoms: _213  and  _214
REMARK   89  A    between atoms: _216  and  _218
REMARK   90  A    between atoms: _218  and  _219
REMARK   91  A    between atoms: _218  and  _221
REMARK   92  A    between atoms: _221  and  _222
REMARK   93  A    between atoms: _228  and  _230
REMARK   94  A    between atoms: _230  and  _231
REMARK   95  A    between atoms: _230  and  _233
REMARK   96  A    between atoms: _233  and  _234
REMARK   97  A    between atoms: _236  and  _238
REMARK   98  A    between atoms: _238  and  _239
REMARK   99  A    between atoms: _238  and  _241
REMARK  100  A    between atoms: _241  and  _242
REMARK  101  A    between atoms: _247  and  _249
REMARK  102  A    between atoms: _249  and  _250
REMARK  103  A    between atoms: _249  and  _252
REMARK  104  A    between atoms: _252  and  _253
REMARK  105  A    between atoms: _253  and  _254
REMARK  106  A    between atoms: _254  and  _255
REMARK  107  A    between atoms: _264  and  _266
REMARK  108  A    between atoms: _266  and  _267
REMARK  109  A    between atoms: _266  and  _269
REMARK  110  A    between atoms: _269  and  _270
REMARK  111  A    between atoms: _272  and  _274
REMARK  112  A    between atoms: _274  and  _275
REMARK  113  A    between atoms: _274  and  _277
REMARK  114  A    between atoms: _277  and  _278
REMARK  115  A    between atoms: _281  and  _283
REMARK  116  A    between atoms: _283  and  _284
REMARK  117  A    between atoms: _283  and  _286
REMARK  118  A    between atoms: _286  and  _287
REMARK  119  A    between atoms: _290  and  _292
REMARK  120  A    between atoms: _292  and  _293
REMARK  121  A    between atoms: _292  and  _295
REMARK  122  A    between atoms: _295  and  _296
REMARK  123  A    between atoms: _299  and  _301
REMARK  124  A    between atoms: _301  and  _302
REMARK  125  A    between atoms: _305  and  _307
REMARK  126  A    between atoms: _307  and  _308
REMARK  127  A    between atoms: _307  and  _310
REMARK  128  A    between atoms: _310  and  _311
REMARK  129  A    between atoms: _314  and  _316
REMARK  130  A    between atoms: _316  and  _317
REMARK  131  A    between atoms: _319  and  _321
REMARK  132  A    between atoms: _321  and  _322
REMARK  133  A    between atoms: _321  and  _324
REMARK  134  A    between atoms: _324  and  _325
REMARK  135  A    between atoms: _328  and  _330
REMARK  136  A    between atoms: _330  and  _331
REMARK  137  A    between atoms: _330  and  _333
REMARK  138  A    between atoms: _336  and  _338
REMARK  139  A    between atoms: _338  and  _339
REMARK  140  A    between atoms: _342  and  _344
REMARK  141  A    between atoms: _344  and  _345
REMARK  142  A    between atoms: _348  and  _350
REMARK  143  A    between atoms: _350  and  _351
REMARK  144  A    between atoms: _353  and  _355
REMARK  145  A    between atoms: _355  and  _356
REMARK  146  A    between atoms: _355  and  _358
REMARK  147  A    between atoms: _361  and  _363
REMARK  148  A    between atoms: _363  and  _364
REMARK  149  A    between atoms: _366  and  _368
REMARK  150  A    between atoms: _368  and  _369
REMARK  151  A    between atoms: _372  and  _374
REMARK  152  A    between atoms: _374  and  _375
REMARK  153  A    between atoms: _374  and  _377
REMARK  154  A    between atoms: _377  and  _378
REMARK  155  A    between atoms: _381  and  _383
REMARK  156  A    between atoms: _383  and  _384
REMARK  157  A    between atoms: _383  and  _386
REMARK  158  A    between atoms: _386  and  _387
REMARK  159  A    between atoms: _393  and  _395
REMARK  160  A    between atoms: _395  and  _396
REMARK  161  A    between atoms: _395  and  _398
REMARK  162  A    between atoms: _398  and  _399
REMARK  163  A    between atoms: _402  and  _404
REMARK  164  A    between atoms: _404  and  _405
REMARK  165  A    between atoms: _404  and  _407
REMARK  166  A    between atoms: _407  and  _408
REMARK  167  A    between atoms: _408  and  _409
REMARK  168  A    between atoms: _409  and  _410
REMARK  169  A    between atoms: _419  and  _421
REMARK  170  A    between atoms: _421  and  _422
REMARK  171  A    between atoms: _421  and  _424
REMARK  172  A    between atoms: _427  and  _429
REMARK  173  A    between atoms: _429  and  _430
REMARK  174  A    between atoms: _429  and  _432
REMARK  175  A    between atoms: _432  and  _433
REMARK  176  A    between atoms: _436  and  _438
REMARK  177  A    between atoms: _438  and  _439
REMARK  178  A    between atoms: _438  and  _441
REMARK  179  A    between atoms: _441  and  _442
REMARK  180  A    between atoms: _442  and  _443
REMARK  181  A    between atoms: _443  and  _444
REMARK  182  A    between atoms: _453  and  _455
REMARK  183  A    between atoms: _455  and  _456
REMARK  184  A    between atoms: _455  and  _458
REMARK  185  A    between atoms: _458  and  _459
REMARK  186  A    between atoms: _462  and  _464
REMARK  187  A    between atoms: _464  and  _465
REMARK  188  A    between atoms: _467  and  _469
REMARK  189  A    between atoms: _469  and  _470
REMARK  190  A    between atoms: _469  and  _472
REMARK  191  A    between atoms: _472  and  _473
REMARK  192  A    between atoms: _473  and  _474
REMARK  193  A    between atoms: _474  and  _475
REMARK  194  A    between atoms: _475  and  _476
REMARK  195  A    between atoms: _480  and  _482
REMARK  196  A    between atoms: _482  and  _483
REMARK  197  A    between atoms: _482  and  _485
REMARK  198  A    between atoms: _487  and  _489
REMARK  199  A    between atoms: _489  and  _490
REMARK  200  A    between atoms: _489  and  _492
REMARK  201  A    between atoms: _492  and  _493
REMARK  202  A    between atoms: _496  and  _498
REMARK  203  A    between atoms: _498  and  _499
REMARK  204  A    between atoms: _498  and  _501
REMARK  205  A    between atoms: _501  and  _502
REMARK  206  A    between atoms: _502  and  _503
REMARK  207  A    between atoms: _506  and  _508
REMARK  208  A    between atoms: _508  and  _509
REMARK  209  A    between atoms: _508  and  _511
REMARK  210  A    between atoms: _511  and  _512
REMARK  211  A    between atoms: _517  and  _519
REMARK  212  A    between atoms: _519  and  _520
REMARK  213  A    between atoms: _519  and  _522
REMARK  214  A    between atoms: _522  and  _523
REMARK  215  A    between atoms: _526  and  _528
REMARK  216  A    between atoms: _528  and  _529
REMARK  217  A    between atoms: _528  and  _531
REMARK  218  A    between atoms: _531  and  _532
REMARK  219  A    between atoms: _538  and  _540
REMARK  220  A    between atoms: _540  and  _541
REMARK  221  A    between atoms: _540  and  _543
REMARK  222  A    between atoms: _543  and  _544
REMARK  223  A    between atoms: _550  and  _552
REMARK  224  A    between atoms: _552  and  _553
REMARK  225  A    between atoms: _552  and  _555
REMARK  226  A    between atoms: _555  and  _556
REMARK  227  A    between atoms: _559  and  _561
REMARK  228  A    between atoms: _561  and  _562
REMARK  229  A    between atoms: _561  and  _564
REMARK  230  A    between atoms: _564  and  _565
REMARK  231  A    between atoms: _568  and  _570
REMARK  232  A    between atoms: _570  and  _571
REMARK  233  A    between atoms: _570  and  _573
REMARK  234  A    between atoms: _573  and  _574
REMARK                            x       y       z     vdW  Elec       q    Type
REMARK                         _______ _______ _______ _____ _____    ______ ____
ROOT
ATOM      1  O   HOH     1      52.263  51.217  26.112  0.00  0.00    +0.000 OA
ENDROOT
TORSDOF 0
REMARK  Name = ../refined-set-2016/4pp5/4pp5_pocket.pdb
REMARK  234 active torsions:
REMARK  status: ('A' for Active; 'I' for Inactive)
REMARK    1  A    between atoms: _1  and  _3
REMARK    2  A    between atoms: _3  and  _4
REMARK    3  A    between atoms: _3  and  _6
REMARK    4  A    between atoms: _6  and  _7
REMARK    5  A    between atoms: _7  and  _8
REMARK    6  A    between atoms: _12  and  _13
REMARK    7  A    between atoms: _18  and  _20
REMARK    8  A    between atoms: _20  and  _21
REMARK    9  A    between atoms: _20  and  _23
REMARK   10  A    between atoms: _26  and  _28
REMARK   11  A    between atoms: _28  and  _29
REMARK   12  A    between atoms: _28  and  _31
REMARK   13  A    between atoms: _31  and  _32
REMARK   14  A    between atoms: _35  and  _37
REMARK   15  A    between atoms: _37  and  _38
REMARK   16  A    between atoms: _37  and  _40
REMARK   17  A    between atoms: _40  and  _41
REMARK   18  A    between atoms: _46  and  _48
REMARK   19  A    between atoms: _48  and  _49
REMARK   20  A    between atoms: _48  and  _51
REMARK   21  A    between atoms: _51  and  _52
REMARK   22  A    between atoms: _55  and  _57
REMARK   23  A    between atoms: _57  and  _58
REMARK   24  A    between atoms: _57  and  _60
REMARK   25  A    between atoms: _62  and  _64
REMARK   26  A    between atoms: _64  and  _65
REMARK   27  A    between atoms: _64  and  _67
REMARK   28  A    between atoms: _67  and  _68
REMARK   29  A    between atoms: _68  and  _69
REMARK   30  A    between atoms: _74  and  _76
REMARK   31  A    between atoms: _76  and  _77
REMARK   32  A    between atoms: _80  and  _82
REMARK   33  A    between atoms: _82  and  _83
REMARK   34  A    between atoms: _86  and  _88
REMARK   35  A    between atoms: _88  and  _89
REMARK   36  A    between atoms: _88  and  _91
REMARK   37  A    between atoms: _91  and  _92
REMARK   38  A    between atoms: _95  and  _97
REMARK   39  A    between atoms: _97  and  _98
REMARK   40  A    between atoms: _97  and  _100
REMARK   41  A    between atoms: _100  and  _101
REMARK   42  A    between atoms: _101  and  _102
REMARK   43  A    between atoms: _102  and  _103
REMARK   44  A    between atoms: _103  and  _104
REMARK   45  A    between atoms: _108  and  _110
REMARK   46  A    between atoms: _110  and  _111
REMARK   47  A    between atoms: _110  and  _113
REMARK   48  A    between atoms: _113  and  _114
REMARK   49  A    between atoms: _114  and  _115
REMARK   50  A    between atoms: _120  and  _122
REMARK   51  A    between atoms: _122  and  _123
REMARK   52  A    between atoms: _122  and  _125
REMARK   53  A    between atoms: _125  and  _126
REMARK   54  A    between atoms: _129  and  _131
REMARK   55  A    between atoms: _131  and  _132
REMARK   56  A    between atoms: _131  and  _134
REMARK   57  A    between atoms: _134  and  _135
REMARK   58  A    between atoms: _138  and  _140
REMARK   59  A    between atoms: _140  and  _141
REMARK   60  A    between atoms: _140  and  _143
REMARK   61  A    between atoms: _143  and  _144
REMARK   62  A    between atoms: _154  and  _156
REMARK   63  A    between atoms: _156  and  _157
REMARK   64  A    between atoms: _156  and  _159
REMARK   65  A    between atoms: _159  and  _160
REMARK   66  A    between atoms: _165  and  _167
REMARK   67  A    between atoms: _167  and  _168
REMARK   68  A    between atoms: _167  and  _170
REMARK   69  A    between atoms: _170  and  _171
REMARK   70  A    between atoms: _171  and  _172
REMARK   71  A    between atoms: _175  and  _177
REMARK   72  A    between atoms: _177  and  _178
REMARK   73  A    between atoms: _177  and  _180
REMARK   74  A    between atoms: _180  and  _181
REMARK   75  A    between atoms: _184  and  _186
REMARK   76  A    between atoms: _186  and  _187
REMARK   77  A    between atoms: _186  and  _189
REMARK   78  A    between atoms: _189  and  _190
REMARK   79  A    between atoms: _193  and  _195
REMARK   80  A    between atoms: _195  and  _196
REMARK   81  A    between atoms: _195  and  _198
REMARK   82  A    between atoms: _198  and  _199
REMARK   83  A    between atoms: _202  and  _204
REMARK   84  A    between atoms: _204  and  _205
REMARK   85  A    between atoms: _208  and  _210
REMARK   86  A    between atoms: _210  and  _211
REMARK   87  A    between atoms: _210  and  _213
REMARK   88  A    between atoms: _213  and  _214
REMARK   89  A    between atoms: _216  and  _218
REMARK   90  A    between atoms: _218  and  _219
REMARK   91  A    between atoms: _218  and  _221
REMARK   92  A    between atoms: _221  and  _222
REMARK   93  A    between atoms: _228  and  _230
REMARK   94  A    between atoms: _230  and  _231
REMARK   95  A    between atoms: _230  and  _233
REMARK   96  A    between atoms: _233  and  _234
REMARK   97  A    between atoms: _236  and  _238
REMARK   98  A    between atoms: _238  and  _239
REMARK   99  A    between atoms: _238  and  _241
REMARK  100  A    between atoms: _241  and  _242
REMARK  101  A    between atoms: _247  and  _249
REMARK  102  A    between atoms: _249  and  _250
REMARK  103  A    between atoms: _249  and  _252
REMARK  104  A    between atoms: _252  and  _253
REMARK  105  A    between atoms: _253  and  _254
REMARK  106  A    between atoms: _254  and  _255
REMARK  107  A    between atoms: _264  and  _266
REMARK  108  A    between atoms: _266  and  _267
REMARK  109  A    between atoms: _266  and  _269
REMARK  110  A    between atoms: _269  and  _270
REMARK  111  A    between atoms: _272  and  _274
REMARK  112  A    between atoms: _274  and  _275
REMARK  113  A    between atoms: _274  and  _277
REMARK  114  A    between atoms: _277  and  _278
REMARK  115  A    between atoms: _281  and  _283
REMARK  116  A    between atoms: _283  and  _284
REMARK  117  A    between atoms: _283  and  _286
REMARK  118  A    between atoms: _286  and  _287
REMARK  119  A    between atoms: _290  and  _292
REMARK  120  A    between atoms: _292  and  _293
REMARK  121  A    between atoms: _292  and  _295
REMARK  122  A    between atoms: _295  and  _296
REMARK  123  A    between atoms: _299  and  _301
REMARK  124  A    between atoms: _301  and  _302
REMARK  125  A    between atoms: _305  and  _307
REMARK  126  A    between atoms: _307  and  _308
REMARK  127  A    between atoms: _307  and  _310
REMARK  128  A    between atoms: _310  and  _311
REMARK  129  A    between atoms: _314  and  _316
REMARK  130  A    between atoms: _316  and  _317
REMARK  131  A    between atoms: _319  and  _321
REMARK  132  A    between atoms: _321  and  _322
REMARK  133  A    between atoms: _321  and  _324
REMARK  134  A    between atoms: _324  and  _325
REMARK  135  A    between atoms: _328  and  _330
REMARK  136  A    between atoms: _330  and  _331
REMARK  137  A    between atoms: _330  and  _333
REMARK  138  A    between atoms: _336  and  _338
REMARK  139  A    between atoms: _338  and  _339
REMARK  140  A    between atoms: _342  and  _344
REMARK  141  A    between atoms: _344  and  _345
REMARK  142  A    between atoms: _348  and  _350
REMARK  143  A    between atoms: _350  and  _351
REMARK  144  A    between atoms: _353  and  _355
REMARK  145  A    between atoms: _355  and  _356
REMARK  146  A    between atoms: _355  and  _358
REMARK  147  A    between atoms: _361  and  _363
REMARK  148  A    between atoms: _363  and  _364
REMARK  149  A    between atoms: _366  and  _368
REMARK  150  A    between atoms: _368  and  _369
REMARK  151  A    between atoms: _372  and  _374
REMARK  152  A    between atoms: _374  and  _375
REMARK  153  A    between atoms: _374  and  _377
REMARK  154  A    between atoms: _377  and  _378
REMARK  155  A    between atoms: _381  and  _383
REMARK  156  A    between atoms: _383  and  _384
REMARK  157  A    between atoms: _383  and  _386
REMARK  158  A    between atoms: _386  and  _387
REMARK  159  A    between atoms: _393  and  _395
REMARK  160  A    between atoms: _395  and  _396
REMARK  161  A    between atoms: _395  and  _398
REMARK  162  A    between atoms: _398  and  _399
REMARK  163  A    between atoms: _402  and  _404
REMARK  164  A    between atoms: _404  and  _405
REMARK  165  A    between atoms: _404  and  _407
REMARK  166  A    between atoms: _407  and  _408
REMARK  167  A    between atoms: _408  and  _409
REMARK  168  A    between atoms: _409  and  _410
REMARK  169  A    between atoms: _419  and  _421
REMARK  170  A    between atoms: _421  and  _422
REMARK  171  A    between atoms: _421  and  _424
REMARK  172  A    between atoms: _427  and  _429
REMARK  173  A    between atoms: _429  and  _430
REMARK  174  A    between atoms: _429  and  _432
REMARK  175  A    between atoms: _432  and  _433
REMARK  176  A    between atoms: _436  and  _438
REMARK  177  A    between atoms: _438  and  _439
REMARK  178  A    between atoms: _438  and  _441
REMARK  179  A    between atoms: _441  and  _442
REMARK  180  A    between atoms: _442  and  _443
REMARK  181  A    between atoms: _443  and  _444
REMARK  182  A    between atoms: _453  and  _455
REMARK  183  A    between atoms: _455  and  _456
REMARK  184  A    between atoms: _455  and  _458
REMARK  185  A    between atoms: _458  and  _459
REMARK  186  A    between atoms: _462  and  _464
REMARK  187  A    between atoms: _464  and  _465
REMARK  188  A    between atoms: _467  and  _469
REMARK  189  A    between atoms: _469  and  _470
REMARK  190  A    between atoms: _469  and  _472
REMARK  191  A    between atoms: _472  and  _473
REMARK  192  A    between atoms: _473  and  _474
REMARK  193  A    between atoms: _474  and  _475
REMARK  194  A    between atoms: _475  and  _476
REMARK  195  A    between atoms: _480  and  _482
REMARK  196  A    between atoms: _482  and  _483
REMARK  197  A    between atoms: _482  and  _485
REMARK  198  A    between atoms: _487  and  _489
REMARK  199  A    between atoms: _489  and  _490
REMARK  200  A    between atoms: _489  and  _492
REMARK  201  A    between atoms: _492  and  _493
REMARK  202  A    between atoms: _496  and  _498
REMARK  203  A    between atoms: _498  and  _499
REMARK  204  A    between atoms: _498  and  _501
REMARK  205  A    between atoms: _501  and  _502
REMARK  206  A    between atoms: _502  and  _503
REMARK  207  A    between atoms: _506  and  _508
REMARK  208  A    between atoms: _508  and  _509
REMARK  209  A    between atoms: _508  and  _511
REMARK  210  A    between atoms: _511  and  _512
REMARK  211  A    between atoms: _517  and  _519
REMARK  212  A    between atoms: _519  and  _520
REMARK  213  A    between atoms: _519  and  _522
REMARK  214  A    between atoms: _522  and  _523
REMARK  215  A    between atoms: _526  and  _528
REMARK  216  A    between atoms: _528  and  _529
REMARK  217  A    between atoms: _528  and  _531
REMARK  218  A    between atoms: _531  and  _532
REMARK  219  A    between atoms: _538  and  _540
REMARK  220  A    between atoms: _540  and  _541
REMARK  221  A    between atoms: _540  and  _543
REMARK  222  A    between atoms: _543  and  _544
REMARK  223  A    between atoms: _550  and  _552
REMARK  224  A    between atoms: _552  and  _553
REMARK  225  A    between atoms: _552  and  _555
REMARK  226  A    between atoms: _555  and  _556
REMARK  227  A    between atoms: _559  and  _561
REMARK  228  A    between atoms: _561  and  _562
REMARK  229  A    between atoms: _561  and  _564
REMARK  230  A    between atoms: _564  and  _565
REMARK  231  A    between atoms: _568  and  _570
REMARK  232  A    between atoms: _570  and  _571
REMARK  233  A    between atoms: _570  and  _573
REMARK  234  A    between atoms: _573  and  _574
REMARK                            x       y       z     vdW  Elec       q    Type
REMARK                         _______ _______ _______ _____ _____    ______ ____
ROOT
ATOM      1  O   HOH     1      73.758  51.233  36.174  0.00  0.00    +0.000 OA
ENDROOT
TORSDOF 0
REMARK  Name = ../refined-set-2016/4pp5/4pp5_pocket.pdb
REMARK  234 active torsions:
REMARK  status: ('A' for Active; 'I' for Inactive)
REMARK    1  A    between atoms: _1  and  _3
REMARK    2  A    between atoms: _3  and  _4
REMARK    3  A    between atoms: _3  and  _6
REMARK    4  A    between atoms: _6  and  _7
REMARK    5  A    between atoms: _7  and  _8
REMARK    6  A    between atoms: _12  and  _13
REMARK    7  A    between atoms: _18  and  _20
REMARK    8  A    between atoms: _20  and  _21
REMARK    9  A    between atoms: _20  and  _23
REMARK   10  A    between atoms: _26  and  _28
REMARK   11  A    between atoms: _28  and  _29
REMARK   12  A    between atoms: _28  and  _31
REMARK   13  A    between atoms: _31  and  _32
REMARK   14  A    between atoms: _35  and  _37
REMARK   15  A    between atoms: _37  and  _38
REMARK   16  A    between atoms: _37  and  _40
REMARK   17  A    between atoms: _40  and  _41
REMARK   18  A    between atoms: _46  and  _48
REMARK   19  A    between atoms: _48  and  _49
REMARK   20  A    between atoms: _48  and  _51
REMARK   21  A    between atoms: _51  and  _52
REMARK   22  A    between atoms: _55  and  _57
REMARK   23  A    between atoms: _57  and  _58
REMARK   24  A    between atoms: _57  and  _60
REMARK   25  A    between atoms: _62  and  _64
REMARK   26  A    between atoms: _64  and  _65
REMARK   27  A    between atoms: _64  and  _67
REMARK   28  A    between atoms: _67  and  _68
REMARK   29  A    between atoms: _68  and  _69
REMARK   30  A    between atoms: _74  and  _76
REMARK   31  A    between atoms: _76  and  _77
REMARK   32  A    between atoms: _80  and  _82
REMARK   33  A    between atoms: _82  and  _83
REMARK   34  A    between atoms: _86  and  _88
REMARK   35  A    between atoms: _88  and  _89
REMARK   36  A    between atoms: _88  and  _91
REMARK   37  A    between atoms: _91  and  _92
REMARK   38  A    between atoms: _95  and  _97
REMARK   39  A    between atoms: _97  and  _98
REMARK   40  A    between atoms: _97  and  _100
REMARK   41  A    between atoms: _100  and  _101
REMARK   42  A    between atoms: _101  and  _102
REMARK   43  A    between atoms: _102  and  _103
REMARK   44  A    between atoms: _103  and  _104
REMARK   45  A    between atoms: _108  and  _110
REMARK   46  A    between atoms: _110  and  _111
REMARK   47  A    between atoms: _110  and  _113
REMARK   48  A    between atoms: _113  and  _114
REMARK   49  A    between atoms: _114  and  _115
REMARK   50  A    between atoms: _120  and  _122
REMARK   51  A    between atoms: _122  and  _123
REMARK   52  A    between atoms: _122  and  _125
REMARK   53  A    between atoms: _125  and  _126
REMARK   54  A    between atoms: _129  and  _131
REMARK   55  A    between atoms: _131  and  _132
REMARK   56  A    between atoms: _131  and  _134
REMARK   57  A    between atoms: _134  and  _135
REMARK   58  A    between atoms: _138  and  _140
REMARK   59  A    between atoms: _140  and  _141
REMARK   60  A    between atoms: _140  and  _143
REMARK   61  A    between atoms: _143  and  _144
REMARK   62  A    between atoms: _154  and  _156
REMARK   63  A    between atoms: _156  and  _157
REMARK   64  A    between atoms: _156  and  _159
REMARK   65  A    between atoms: _159  and  _160
REMARK   66  A    between atoms: _165  and  _167
REMARK   67  A    between atoms: _167  and  _168
REMARK   68  A    between atoms: _167  and  _170
REMARK   69  A    between atoms: _170  and  _171
REMARK   70  A    between atoms: _171  and  _172
REMARK   71  A    between atoms: _175  and  _177
REMARK   72  A    between atoms: _177  and  _178
REMARK   73  A    between atoms: _177  and  _180
REMARK   74  A    between atoms: _180  and  _181
REMARK   75  A    between atoms: _184  and  _186
REMARK   76  A    between atoms: _186  and  _187
REMARK   77  A    between atoms: _186  and  _189
REMARK   78  A    between atoms: _189  and  _190
REMARK   79  A    between atoms: _193  and  _195
REMARK   80  A    between atoms: _195  and  _196
REMARK   81  A    between atoms: _195  and  _198
REMARK   82  A    between atoms: _198  and  _199
REMARK   83  A    between atoms: _202  and  _204
REMARK   84  A    between atoms: _204  and  _205
REMARK   85  A    between atoms: _208  and  _210
REMARK   86  A    between atoms: _210  and  _211
REMARK   87  A    between atoms: _210  and  _213
REMARK   88  A    between atoms: _213  and  _214
REMARK   89  A    between atoms: _216  and  _218
REMARK   90  A    between atoms: _218  and  _219
REMARK   91  A    between atoms: _218  and  _221
REMARK   92  A    between atoms: _221  and  _222
REMARK   93  A    between atoms: _228  and  _230
REMARK   94  A    between atoms: _230  and  _231
REMARK   95  A    between atoms: _230  and  _233
REMARK   96  A    between atoms: _233  and  _234
REMARK   97  A    between atoms: _236  and  _238
REMARK   98  A    between atoms: _238  and  _239
REMARK   99  A    between atoms: _238  and  _241
REMARK  100  A    between atoms: _241  and  _242
REMARK  101  A    between atoms: _247  and  _249
REMARK  102  A    between atoms: _249  and  _250
REMARK  103  A    between atoms: _249  and  _252
REMARK  104  A    between atoms: _252  and  _253
REMARK  105  A    between atoms: _253  and  _254
REMARK  106  A    between atoms: _254  and  _255
REMARK  107  A    between atoms: _264  and  _266
REMARK  108  A    between atoms: _266  and  _267
REMARK  109  A    between atoms: _266  and  _269
REMARK  110  A    between atoms: _269  and  _270
REMARK  111  A    between atoms: _272  and  _274
REMARK  112  A    between atoms: _274  and  _275
REMARK  113  A    between atoms: _274  and  _277
REMARK  114  A    between atoms: _277  and  _278
REMARK  115  A    between atoms: _281  and  _283
REMARK  116  A    between atoms: _283  and  _284
REMARK  117  A    between atoms: _283  and  _286
REMARK  118  A    between atoms: _286  and  _287
REMARK  119  A    between atoms: _290  and  _292
REMARK  120  A    between atoms: _292  and  _293
REMARK  121  A    between atoms: _292  and  _295
REMARK  122  A    between atoms: _295  and  _296
REMARK  123  A    between atoms: _299  and  _301
REMARK  124  A    between atoms: _301  and  _302
REMARK  125  A    between atoms: _305  and  _307
REMARK  126  A    between atoms: _307  and  _308
REMARK  127  A    between atoms: _307  and  _310
REMARK  128  A    between atoms: _310  and  _311
REMARK  129  A    between atoms: _314  and  _316
REMARK  130  A    between atoms: _316  and  _317
REMARK  131  A    between atoms: _319  and  _321
REMARK  132  A    between atoms: _321  and  _322
REMARK  133  A    between atoms: _321  and  _324
REMARK  134  A    between atoms: _324  and  _325
REMARK  135  A    between atoms: _328  and  _330
REMARK  136  A    between atoms: _330  and  _331
REMARK  137  A    between atoms: _330  and  _333
REMARK  138  A    between atoms: _336  and  _338
REMARK  139  A    between atoms: _338  and  _339
REMARK  140  A    between atoms: _342  and  _344
REMARK  141  A    between atoms: _344  and  _345
REMARK  142  A    between atoms: _348  and  _350
REMARK  143  A    between atoms: _350  and  _351
REMARK  144  A    between atoms: _353  and  _355
REMARK  145  A    between atoms: _355  and  _356
REMARK  146  A    between atoms: _355  and  _358
REMARK  147  A    between atoms: _361  and  _363
REMARK  148  A    between atoms: _363  and  _364
REMARK  149  A    between atoms: _366  and  _368
REMARK  150  A    between atoms: _368  and  _369
REMARK  151  A    between atoms: _372  and  _374
REMARK  152  A    between atoms: _374  and  _375
REMARK  153  A    between atoms: _374  and  _377
REMARK  154  A    between atoms: _377  and  _378
REMARK  155  A    between atoms: _381  and  _383
REMARK  156  A    between atoms: _383  and  _384
REMARK  157  A    between atoms: _383  and  _386
REMARK  158  A    between atoms: _386  and  _387
REMARK  159  A    between atoms: _393  and  _395
REMARK  160  A    between atoms: _395  and  _396
REMARK  161  A    between atoms: _395  and  _398
REMARK  162  A    between atoms: _398  and  _399
REMARK  163  A    between atoms: _402  and  _404
REMARK  164  A    between atoms: _404  and  _405
REMARK  165  A    between atoms: _404  and  _407
REMARK  166  A    between atoms: _407  and  _408
REMARK  167  A    between atoms: _408  and  _409
REMARK  168  A    between atoms: _409  and  _410
REMARK  169  A    between atoms: _419  and  _421
REMARK  170  A    between atoms: _421  and  _422
REMARK  171  A    between atoms: _421  and  _424
REMARK  172  A    between atoms: _427  and  _429
REMARK  173  A    between atoms: _429  and  _430
REMARK  174  A    between atoms: _429  and  _432
REMARK  175  A    between atoms: _432  and  _433
REMARK  176  A    between atoms: _436  and  _438
REMARK  177  A    between atoms: _438  and  _439
REMARK  178  A    between atoms: _438  and  _441
REMARK  179  A    between atoms: _441  and  _442
REMARK  180  A    between atoms: _442  and  _443
REMARK  181  A    between atoms: _443  and  _444
REMARK  182  A    between atoms: _453  and  _455
REMARK  183  A    between atoms: _455  and  _456
REMARK  184  A    between atoms: _455  and  _458
REMARK  185  A    between atoms: _458  and  _459
REMARK  186  A    between atoms: _462  and  _464
REMARK  187  A    between atoms: _464  and  _465
REMARK  188  A    between atoms: _467  and  _469
REMARK  189  A    between atoms: _469  and  _470
REMARK  190  A    between atoms: _469  and  _472
REMARK  191  A    between atoms: _472  and  _473
REMARK  192  A    between atoms: _473  and  _474
REMARK  193  A    between atoms: _474  and  _475
REMARK  194  A    between atoms: _475  and  _476
REMARK  195  A    between atoms: _480  and  _482
REMARK  196  A    between atoms: _482  and  _483
REMARK  197  A    between atoms: _482  and  _485
REMARK  198  A    between atoms: _487  and  _489
REMARK  199  A    between atoms: _489  and  _490
REMARK  200  A    between atoms: _489  and  _492
REMARK  201  A    between atoms: _492  and  _493
REMARK  202  A    between atoms: _496  and  _498
REMARK  203  A    between atoms: _498  and  _499
REMARK  204  A    between atoms: _498  and  _501
REMARK  205  A    between atoms: _501  and  _502
REMARK  206  A    between atoms: _502  and  _503
REMARK  207  A    between atoms: _506  and  _508
REMARK  208  A    between atoms: _508  and  _509
REMARK  209  A    between atoms: _508  and  _511
REMARK  210  A    between atoms: _511  and  _512
REMARK  211  A    between atoms: _517  and  _519
REMARK  212  A    between atoms: _519  and  _520
REMARK  213  A    between atoms: _519  and  _522
REMARK  214  A    between atoms: _522  and  _523
REMARK  215  A    between atoms: _526  and  _528
REMARK  216  A    between atoms: _528  and  _529
REMARK  217  A    between atoms: _528  and  _531
REMARK  218  A    between atoms: _531  and  _532
REMARK  219  A    between atoms: _538  and  _540
REMARK  220  A    between atoms: _540  and  _541
REMARK  221  A    between atoms: _540  and  _543
REMARK  222  A    between atoms: _543  and  _544
REMARK  223  A    between atoms: _550  and  _552
REMARK  224  A    between atoms: _552  and  _553
REMARK  225  A    between atoms: _552  and  _555
REMARK  226  A    between atoms: _555  and  _556
REMARK  227  A    between atoms: _559  and  _561
REMARK  228  A    between atoms: _561  and  _562
REMARK  229  A    between atoms: _561  and  _564
REMARK  230  A    between atoms: _564  and  _565
REMARK  231  A    between atoms: _568  and  _570
REMARK  232  A    between atoms: _570  and  _571
REMARK  233  A    between atoms: _570  and  _573
REMARK  234  A    between atoms: _573  and  _574
REMARK                            x       y       z     vdW  Elec       q    Type
REMARK                         _______ _______ _______ _____ _____    ______ ____
ROOT
ATOM      1  O   HOH     1      51.817  53.270  30.220  0.00  0.00    +0.000 OA
ENDROOT
TORSDOF 0
REMARK  Name = ../refined-set-2016/4pp5/4pp5_pocket.pdb
REMARK  234 active torsions:
REMARK  status: ('A' for Active; 'I' for Inactive)
REMARK    1  A    between atoms: _1  and  _3
REMARK    2  A    between atoms: _3  and  _4
REMARK    3  A    between atoms: _3  and  _6
REMARK    4  A    between atoms: _6  and  _7
REMARK    5  A    between atoms: _7  and  _8
REMARK    6  A    between atoms: _12  and  _13
REMARK    7  A    between atoms: _18  and  _20
REMARK    8  A    between atoms: _20  and  _21
REMARK    9  A    between atoms: _20  and  _23
REMARK   10  A    between atoms: _26  and  _28
REMARK   11  A    between atoms: _28  and  _29
REMARK   12  A    between atoms: _28  and  _31
REMARK   13  A    between atoms: _31  and  _32
REMARK   14  A    between atoms: _35  and  _37
REMARK   15  A    between atoms: _37  and  _38
REMARK   16  A    between atoms: _37  and  _40
REMARK   17  A    between atoms: _40  and  _41
REMARK   18  A    between atoms: _46  and  _48
REMARK   19  A    between atoms: _48  and  _49
REMARK   20  A    between atoms: _48  and  _51
REMARK   21  A    between atoms: _51  and  _52
REMARK   22  A    between atoms: _55  and  _57
REMARK   23  A    between atoms: _57  and  _58
REMARK   24  A    between atoms: _57  and  _60
REMARK   25  A    between atoms: _62  and  _64
REMARK   26  A    between atoms: _64  and  _65
REMARK   27  A    between atoms: _64  and  _67
REMARK   28  A    between atoms: _67  and  _68
REMARK   29  A    between atoms: _68  and  _69
REMARK   30  A    between atoms: _74  and  _76
REMARK   31  A    between atoms: _76  and  _77
REMARK   32  A    between atoms: _80  and  _82
REMARK   33  A    between atoms: _82  and  _83
REMARK   34  A    between atoms: _86  and  _88
REMARK   35  A    between atoms: _88  and  _89
REMARK   36  A    between atoms: _88  and  _91
REMARK   37  A    between atoms: _91  and  _92
REMARK   38  A    between atoms: _95  and  _97
REMARK   39  A    between atoms: _97  and  _98
REMARK   40  A    between atoms: _97  and  _100
REMARK   41  A    between atoms: _100  and  _101
REMARK   42  A    between atoms: _101  and  _102
REMARK   43  A    between atoms: _102  and  _103
REMARK   44  A    between atoms: _103  and  _104
REMARK   45  A    between atoms: _108  and  _110
REMARK   46  A    between atoms: _110  and  _111
REMARK   47  A    between atoms: _110  and  _113
REMARK   48  A    between atoms: _113  and  _114
REMARK   49  A    between atoms: _114  and  _115
REMARK   50  A    between atoms: _120  and  _122
REMARK   51  A    between atoms: _122  and  _123
REMARK   52  A    between atoms: _122  and  _125
REMARK   53  A    between atoms: _125  and  _126
REMARK   54  A    between atoms: _129  and  _131
REMARK   55  A    between atoms: _131  and  _132
REMARK   56  A    between atoms: _131  and  _134
REMARK   57  A    between atoms: _134  and  _135
REMARK   58  A    between atoms: _138  and  _140
REMARK   59  A    between atoms: _140  and  _141
REMARK   60  A    between atoms: _140  and  _143
REMARK   61  A    between atoms: _143  and  _144
REMARK   62  A    between atoms: _154  and  _156
REMARK   63  A    between atoms: _156  and  _157
REMARK   64  A    between atoms: _156  and  _159
REMARK   65  A    between atoms: _159  and  _160
REMARK   66  A    between atoms: _165  and  _167
REMARK   67  A    between atoms: _167  and  _168
REMARK   68  A    between atoms: _167  and  _170
REMARK   69  A    between atoms: _170  and  _171
REMARK   70  A    between atoms: _171  and  _172
REMARK   71  A    between atoms: _175  and  _177
REMARK   72  A    between atoms: _177  and  _178
REMARK   73  A    between atoms: _177  and  _180
REMARK   74  A    between atoms: _180  and  _181
REMARK   75  A    between atoms: _184  and  _186
REMARK   76  A    between atoms: _186  and  _187
REMARK   77  A    between atoms: _186  and  _189
REMARK   78  A    between atoms: _189  and  _190
REMARK   79  A    between atoms: _193  and  _195
REMARK   80  A    between atoms: _195  and  _196
REMARK   81  A    between atoms: _195  and  _198
REMARK   82  A    between atoms: _198  and  _199
REMARK   83  A    between atoms: _202  and  _204
REMARK   84  A    between atoms: _204  and  _205
REMARK   85  A    between atoms: _208  and  _210
REMARK   86  A    between atoms: _210  and  _211
REMARK   87  A    between atoms: _210  and  _213
REMARK   88  A    between atoms: _213  and  _214
REMARK   89  A    between atoms: _216  and  _218
REMARK   90  A    between atoms: _218  and  _219
REMARK   91  A    between atoms: _218  and  _221
REMARK   92  A    between atoms: _221  and  _222
REMARK   93  A    between atoms: _228  and  _230
REMARK   94  A    between atoms: _230  and  _231
REMARK   95  A    between atoms: _230  and  _233
REMARK   96  A    between atoms: _233  and  _234
REMARK   97  A    between atoms: _236  and  _238
REMARK   98  A    between atoms: _238  and  _239
REMARK   99  A    between atoms: _238  and  _241
REMARK  100  A    between atoms: _241  and  _242
REMARK  101  A    between atoms: _247  and  _249
REMARK  102  A    between atoms: _249  and  _250
REMARK  103  A    between atoms: _249  and  _252
REMARK  104  A    between atoms: _252  and  _253
REMARK  105  A    between atoms: _253  and  _254
REMARK  106  A    between atoms: _254  and  _255
REMARK  107  A    between atoms: _264  and  _266
REMARK  108  A    between atoms: _266  and  _267
REMARK  109  A    between atoms: _266  and  _269
REMARK  110  A    between atoms: _269  and  _270
REMARK  111  A    between atoms: _272  and  _274
REMARK  112  A    between atoms: _274  and  _275
REMARK  113  A    between atoms: _274  and  _277
REMARK  114  A    between atoms: _277  and  _278
REMARK  115  A    between atoms: _281  and  _283
REMARK  116  A    between atoms: _283  and  _284
REMARK  117  A    between atoms: _283  and  _286
REMARK  118  A    between atoms: _286  and  _287
REMARK  119  A    between atoms: _290  and  _292
REMARK  120  A    between atoms: _292  and  _293
REMARK  121  A    between atoms: _292  and  _295
REMARK  122  A    between atoms: _295  and  _296
REMARK  123  A    between atoms: _299  and  _301
REMARK  124  A    between atoms: _301  and  _302
REMARK  125  A    between atoms: _305  and  _307
REMARK  126  A    between atoms: _307  and  _308
REMARK  127  A    between atoms: _307  and  _310
REMARK  128  A    between atoms: _310  and  _311
REMARK  129  A    between atoms: _314  and  _316
REMARK  130  A    between atoms: _316  and  _317
REMARK  131  A    between atoms: _319  and  _321
REMARK  132  A    between atoms: _321  and  _322
REMARK  133  A    between atoms: _321  and  _324
REMARK  134  A    between atoms: _324  and  _325
REMARK  135  A    between atoms: _328  and  _330
REMARK  136  A    between atoms: _330  and  _331
REMARK  137  A    between atoms: _330  and  _333
REMARK  138  A    between atoms: _336  and  _338
REMARK  139  A    between atoms: _338  and  _339
REMARK  140  A    between atoms: _342  and  _344
REMARK  141  A    between atoms: _344  and  _345
REMARK  142  A    between atoms: _348  and  _350
REMARK  143  A    between atoms: _350  and  _351
REMARK  144  A    between atoms: _353  and  _355
REMARK  145  A    between atoms: _355  and  _356
REMARK  146  A    between atoms: _355  and  _358
REMARK  147  A    between atoms: _361  and  _363
REMARK  148  A    between atoms: _363  and  _364
REMARK  149  A    between atoms: _366  and  _368
REMARK  150  A    between atoms: _368  and  _369
REMARK  151  A    between atoms: _372  and  _374
REMARK  152  A    between atoms: _374  and  _375
REMARK  153  A    between atoms: _374  and  _377
REMARK  154  A    between atoms: _377  and  _378
REMARK  155  A    between atoms: _381  and  _383
REMARK  156  A    between atoms: _383  and  _384
REMARK  157  A    between atoms: _383  and  _386
REMARK  158  A    between atoms: _386  and  _387
REMARK  159  A    between atoms: _393  and  _395
REMARK  160  A    between atoms: _395  and  _396
REMARK  161  A    between atoms: _395  and  _398
REMARK  162  A    between atoms: _398  and  _399
REMARK  163  A    between atoms: _402  and  _404
REMARK  164  A    between atoms: _404  and  _405
REMARK  165  A    between atoms: _404  and  _407
REMARK  166  A    between atoms: _407  and  _408
REMARK  167  A    between atoms: _408  and  _409
REMARK  168  A    between atoms: _409  and  _410
REMARK  169  A    between atoms: _419  and  _421
REMARK  170  A    between atoms: _421  and  _422
REMARK  171  A    between atoms: _421  and  _424
REMARK  172  A    between atoms: _427  and  _429
REMARK  173  A    between atoms: _429  and  _430
REMARK  174  A    between atoms: _429  and  _432
REMARK  175  A    between atoms: _432  and  _433
REMARK  176  A    between atoms: _436  and  _438
REMARK  177  A    between atoms: _438  and  _439
REMARK  178  A    between atoms: _438  and  _441
REMARK  179  A    between atoms: _441  and  _442
REMARK  180  A    between atoms: _442  and  _443
REMARK  181  A    between atoms: _443  and  _444
REMARK  182  A    between atoms: _453  and  _455
REMARK  183  A    between atoms: _455  and  _456
REMARK  184  A    between atoms: _455  and  _458
REMARK  185  A    between atoms: _458  and  _459
REMARK  186  A    between atoms: _462  and  _464
REMARK  187  A    between atoms: _464  and  _465
REMARK  188  A    between atoms: _467  and  _469
REMARK  189  A    between atoms: _469  and  _470
REMARK  190  A    between atoms: _469  and  _472
REMARK  191  A    between atoms: _472  and  _473
REMARK  192  A    between atoms: _473  and  _474
REMARK  193  A    between atoms: _474  and  _475
REMARK  194  A    between atoms: _475  and  _476
REMARK  195  A    between atoms: _480  and  _482
REMARK  196  A    between atoms: _482  and  _483
REMARK  197  A    between atoms: _482  and  _485
REMARK  198  A    between atoms: _487  and  _489
REMARK  199  A    between atoms: _489  and  _490
REMARK  200  A    between atoms: _489  and  _492
REMARK  201  A    between atoms: _492  and  _493
REMARK  202  A    between atoms: _496  and  _498
REMARK  203  A    between atoms: _498  and  _499
REMARK  204  A    between atoms: _498  and  _501
REMARK  205  A    between atoms: _501  and  _502
REMARK  206  A    between atoms: _502  and  _503
REMARK  207  A    between atoms: _506  and  _508
REMARK  208  A    between atoms: _508  and  _509
REMARK  209  A    between atoms: _508  and  _511
REMARK  210  A    between atoms: _511  and  _512
REMARK  211  A    between atoms: _517  and  _519
REMARK  212  A    between atoms: _519  and  _520
REMARK  213  A    between atoms: _519  and  _522
REMARK  214  A    between atoms: _522  and  _523
REMARK  215  A    between atoms: _526  and  _528
REMARK  216  A    between atoms: _528  and  _529
REMARK  217  A    between atoms: _528  and  _531
REMARK  218  A    between atoms: _531  and  _532
REMARK  219  A    between atoms: _538  and  _540
REMARK  220  A    between atoms: _540  and  _541
REMARK  221  A    between atoms: _540  and  _543
REMARK  222  A    between atoms: _543  and  _544
REMARK  223  A    between atoms: _550  and  _552
REMARK  224  A    between atoms: _552  and  _553
REMARK  225  A    between atoms: _552  and  _555
REMARK  226  A    between atoms: _555  and  _556
REMARK  227  A    between atoms: _559  and  _561
REMARK  228  A    between atoms: _561  and  _562
REMARK  229  A    between atoms: _561  and  _564
REMARK  230  A    between atoms: _564  and  _565
REMARK  231  A    between atoms: _568  and  _570
REMARK  232  A    between atoms: _570  and  _571
REMARK  233  A    between atoms: _570  and  _573
REMARK  234  A    between atoms: _573  and  _574
REMARK                            x       y       z     vdW  Elec       q    Type
REMARK                         _______ _______ _______ _____ _____    ______ ____
ROOT
ATOM      1  O   HOH     1      54.580  49.797  26.380  0.00  0.00    +0.000 OA
ENDROOT
TORSDOF 0
REMARK  Name = ../refined-set-2016/4pp5/4pp5_pocket.pdb
REMARK  234 active torsions:
REMARK  status: ('A' for Active; 'I' for Inactive)
REMARK    1  A    between atoms: _1  and  _3
REMARK    2  A    between atoms: _3  and  _4
REMARK    3  A    between atoms: _3  and  _6
REMARK    4  A    between atoms: _6  and  _7
REMARK    5  A    between atoms: _7  and  _8
REMARK    6  A    between atoms: _12  and  _13
REMARK    7  A    between atoms: _18  and  _20
REMARK    8  A    between atoms: _20  and  _21
REMARK    9  A    between atoms: _20  and  _23
REMARK   10  A    between atoms: _26  and  _28
REMARK   11  A    between atoms: _28  and  _29
REMARK   12  A    between atoms: _28  and  _31
REMARK   13  A    between atoms: _31  and  _32
REMARK   14  A    between atoms: _35  and  _37
REMARK   15  A    between atoms: _37  and  _38
REMARK   16  A    between atoms: _37  and  _40
REMARK   17  A    between atoms: _40  and  _41
REMARK   18  A    between atoms: _46  and  _48
REMARK   19  A    between atoms: _48  and  _49
REMARK   20  A    between atoms: _48  and  _51
REMARK   21  A    between atoms: _51  and  _52
REMARK   22  A    between atoms: _55  and  _57
REMARK   23  A    between atoms: _57  and  _58
REMARK   24  A    between atoms: _57  and  _60
REMARK   25  A    between atoms: _62  and  _64
REMARK   26  A    between atoms: _64  and  _65
REMARK   27  A    between atoms: _64  and  _67
REMARK   28  A    between atoms: _67  and  _68
REMARK   29  A    between atoms: _68  and  _69
REMARK   30  A    between atoms: _74  and  _76
REMARK   31  A    between atoms: _76  and  _77
REMARK   32  A    between atoms: _80  and  _82
REMARK   33  A    between atoms: _82  and  _83
REMARK   34  A    between atoms: _86  and  _88
REMARK   35  A    between atoms: _88  and  _89
REMARK   36  A    between atoms: _88  and  _91
REMARK   37  A    between atoms: _91  and  _92
REMARK   38  A    between atoms: _95  and  _97
REMARK   39  A    between atoms: _97  and  _98
REMARK   40  A    between atoms: _97  and  _100
REMARK   41  A    between atoms: _100  and  _101
REMARK   42  A    between atoms: _101  and  _102
REMARK   43  A    between atoms: _102  and  _103
REMARK   44  A    between atoms: _103  and  _104
REMARK   45  A    between atoms: _108  and  _110
REMARK   46  A    between atoms: _110  and  _111
REMARK   47  A    between atoms: _110  and  _113
REMARK   48  A    between atoms: _113  and  _114
REMARK   49  A    between atoms: _114  and  _115
REMARK   50  A    between atoms: _120  and  _122
REMARK   51  A    between atoms: _122  and  _123
REMARK   52  A    between atoms: _122  and  _125
REMARK   53  A    between atoms: _125  and  _126
REMARK   54  A    between atoms: _129  and  _131
REMARK   55  A    between atoms: _131  and  _132
REMARK   56  A    between atoms: _131  and  _134
REMARK   57  A    between atoms: _134  and  _135
REMARK   58  A    between atoms: _138  and  _140
REMARK   59  A    between atoms: _140  and  _141
REMARK   60  A    between atoms: _140  and  _143
REMARK   61  A    between atoms: _143  and  _144
REMARK   62  A    between atoms: _154  and  _156
REMARK   63  A    between atoms: _156  and  _157
REMARK   64  A    between atoms: _156  and  _159
REMARK   65  A    between atoms: _159  and  _160
REMARK   66  A    between atoms: _165  and  _167
REMARK   67  A    between atoms: _167  and  _168
REMARK   68  A    between atoms: _167  and  _170
REMARK   69  A    between atoms: _170  and  _171
REMARK   70  A    between atoms: _171  and  _172
REMARK   71  A    between atoms: _175  and  _177
REMARK   72  A    between atoms: _177  and  _178
REMARK   73  A    between atoms: _177  and  _180
REMARK   74  A    between atoms: _180  and  _181
REMARK   75  A    between atoms: _184  and  _186
REMARK   76  A    between atoms: _186  and  _187
REMARK   77  A    between atoms: _186  and  _189
REMARK   78  A    between atoms: _189  and  _190
REMARK   79  A    between atoms: _193  and  _195
REMARK   80  A    between atoms: _195  and  _196
REMARK   81  A    between atoms: _195  and  _198
REMARK   82  A    between atoms: _198  and  _199
REMARK   83  A    between atoms: _202  and  _204
REMARK   84  A    between atoms: _204  and  _205
REMARK   85  A    between atoms: _208  and  _210
REMARK   86  A    between atoms: _210  and  _211
REMARK   87  A    between atoms: _210  and  _213
REMARK   88  A    between atoms: _213  and  _214
REMARK   89  A    between atoms: _216  and  _218
REMARK   90  A    between atoms: _218  and  _219
REMARK   91  A    between atoms: _218  and  _221
REMARK   92  A    between atoms: _221  and  _222
REMARK   93  A    between atoms: _228  and  _230
REMARK   94  A    between atoms: _230  and  _231
REMARK   95  A    between atoms: _230  and  _233
REMARK   96  A    between atoms: _233  and  _234
REMARK   97  A    between atoms: _236  and  _238
REMARK   98  A    between atoms: _238  and  _239
REMARK   99  A    between atoms: _238  and  _241
REMARK  100  A    between atoms: _241  and  _242
REMARK  101  A    between atoms: _247  and  _249
REMARK  102  A    between atoms: _249  and  _250
REMARK  103  A    between atoms: _249  and  _252
REMARK  104  A    between atoms: _252  and  _253
REMARK  105  A    between atoms: _253  and  _254
REMARK  106  A    between atoms: _254  and  _255
REMARK  107  A    between atoms: _264  and  _266
REMARK  108  A    between atoms: _266  and  _267
REMARK  109  A    between atoms: _266  and  _269
REMARK  110  A    between atoms: _269  and  _270
REMARK  111  A    between atoms: _272  and  _274
REMARK  112  A    between atoms: _274  and  _275
REMARK  113  A    between atoms: _274  and  _277
REMARK  114  A    between atoms: _277  and  _278
REMARK  115  A    between atoms: _281  and  _283
REMARK  116  A    between atoms: _283  and  _284
REMARK  117  A    between atoms: _283  and  _286
REMARK  118  A    between atoms: _286  and  _287
REMARK  119  A    between atoms: _290  and  _292
REMARK  120  A    between atoms: _292  and  _293
REMARK  121  A    between atoms: _292  and  _295
REMARK  122  A    between atoms: _295  and  _296
REMARK  123  A    between atoms: _299  and  _301
REMARK  124  A    between atoms: _301  and  _302
REMARK  125  A    between atoms: _305  and  _307
REMARK  126  A    between atoms: _307  and  _308
REMARK  127  A    between atoms: _307  and  _310
REMARK  128  A    between atoms: _310  and  _311
REMARK  129  A    between atoms: _314  and  _316
REMARK  130  A    between atoms: _316  and  _317
REMARK  131  A    between atoms: _319  and  _321
REMARK  132  A    between atoms: _321  and  _322
REMARK  133  A    between atoms: _321  and  _324
REMARK  134  A    between atoms: _324  and  _325
REMARK  135  A    between atoms: _328  and  _330
REMARK  136  A    between atoms: _330  and  _331
REMARK  137  A    between atoms: _330  and  _333
REMARK  138  A    between atoms: _336  and  _338
REMARK  139  A    between atoms: _338  and  _339
REMARK  140  A    between atoms: _342  and  _344
REMARK  141  A    between atoms: _344  and  _345
REMARK  142  A    between atoms: _348  and  _350
REMARK  143  A    between atoms: _350  and  _351
REMARK  144  A    between atoms: _353  and  _355
REMARK  145  A    between atoms: _355  and  _356
REMARK  146  A    between atoms: _355  and  _358
REMARK  147  A    between atoms: _361  and  _363
REMARK  148  A    between atoms: _363  and  _364
REMARK  149  A    between atoms: _366  and  _368
REMARK  150  A    between atoms: _368  and  _369
REMARK  151  A    between atoms: _372  and  _374
REMARK  152  A    between atoms: _374  and  _375
REMARK  153  A    between atoms: _374  and  _377
REMARK  154  A    between atoms: _377  and  _378
REMARK  155  A    between atoms: _381  and  _383
REMARK  156  A    between atoms: _383  and  _384
REMARK  157  A    between atoms: _383  and  _386
REMARK  158  A    between atoms: _386  and  _387
REMARK  159  A    between atoms: _393  and  _395
REMARK  160  A    between atoms: _395  and  _396
REMARK  161  A    between atoms: _395  and  _398
REMARK  162  A    between atoms: _398  and  _399
REMARK  163  A    between atoms: _402  and  _404
REMARK  164  A    between atoms: _404  and  _405
REMARK  165  A    between atoms: _404  and  _407
REMARK  166  A    between atoms: _407  and  _408
REMARK  167  A    between atoms: _408  and  _409
REMARK  168  A    between atoms: _409  and  _410
REMARK  169  A    between atoms: _419  and  _421
REMARK  170  A    between atoms: _421  and  _422
REMARK  171  A    between atoms: _421  and  _424
REMARK  172  A    between atoms: _427  and  _429
REMARK  173  A    between atoms: _429  and  _430
REMARK  174  A    between atoms: _429  and  _432
REMARK  175  A    between atoms: _432  and  _433
REMARK  176  A    between atoms: _436  and  _438
REMARK  177  A    between atoms: _438  and  _439
REMARK  178  A    between atoms: _438  and  _441
REMARK  179  A    between atoms: _441  and  _442
REMARK  180  A    between atoms: _442  and  _443
REMARK  181  A    between atoms: _443  and  _444
REMARK  182  A    between atoms: _453  and  _455
REMARK  183  A    between atoms: _455  and  _456
REMARK  184  A    between atoms: _455  and  _458
REMARK  185  A    between atoms: _458  and  _459
REMARK  186  A    between atoms: _462  and  _464
REMARK  187  A    between atoms: _464  and  _465
REMARK  188  A    between atoms: _467  and  _469
REMARK  189  A    between atoms: _469  and  _470
REMARK  190  A    between atoms: _469  and  _472
REMARK  191  A    between atoms: _472  and  _473
REMARK  192  A    between atoms: _473  and  _474
REMARK  193  A    between atoms: _474  and  _475
REMARK  194  A    between atoms: _475  and  _476
REMARK  195  A    between atoms: _480  and  _482
REMARK  196  A    between atoms: _482  and  _483
REMARK  197  A    between atoms: _482  and  _485
REMARK  198  A    between atoms: _487  and  _489
REMARK  199  A    between atoms: _489  and  _490
REMARK  200  A    between atoms: _489  and  _492
REMARK  201  A    between atoms: _492  and  _493
REMARK  202  A    between atoms: _496  and  _498
REMARK  203  A    between atoms: _498  and  _499
REMARK  204  A    between atoms: _498  and  _501
REMARK  205  A    between atoms: _501  and  _502
REMARK  206  A    between atoms: _502  and  _503
REMARK  207  A    between atoms: _506  and  _508
REMARK  208  A    between atoms: _508  and  _509
REMARK  209  A    between atoms: _508  and  _511
REMARK  210  A    between atoms: _511  and  _512
REMARK  211  A    between atoms: _517  and  _519
REMARK  212  A    between atoms: _519  and  _520
REMARK  213  A    between atoms: _519  and  _522
REMARK  214  A    between atoms: _522  and  _523
REMARK  215  A    between atoms: _526  and  _528
REMARK  216  A    between atoms: _528  and  _529
REMARK  217  A    between atoms: _528  and  _531
REMARK  218  A    between atoms: _531  and  _532
REMARK  219  A    between atoms: _538  and  _540
REMARK  220  A    between atoms: _540  and  _541
REMARK  221  A    between atoms: _540  and  _543
REMARK  222  A    between atoms: _543  and  _544
REMARK  223  A    between atoms: _550  and  _552
REMARK  224  A    between atoms: _552  and  _553
REMARK  225  A    between atoms: _552  and  _555
REMARK  226  A    between atoms: _555  and  _556
REMARK  227  A    between atoms: _559  and  _561
REMARK  228  A    between atoms: _561  and  _562
REMARK  229  A    between atoms: _561  and  _564
REMARK  230  A    between atoms: _564  and  _565
REMARK  231  A    between atoms: _568  and  _570
REMARK  232  A    between atoms: _570  and  _571
REMARK  233  A    between atoms: _570  and  _573
REMARK  234  A    between atoms: _573  and  _574
REMARK                            x       y       z     vdW  Elec       q    Type
REMARK                         _______ _______ _______ _____ _____    ______ ____
ROOT
ATOM      1  O   HOH     1      73.586  47.683  39.798  0.00  0.00    +0.000 OA
ENDROOT
TORSDOF 0
REMARK  Name = ../refined-set-2016/4pp5/4pp5_pocket.pdb
REMARK  234 active torsions:
REMARK  status: ('A' for Active; 'I' for Inactive)
REMARK    1  A    between atoms: _1  and  _3
REMARK    2  A    between atoms: _3  and  _4
REMARK    3  A    between atoms: _3  and  _6
REMARK    4  A    between atoms: _6  and  _7
REMARK    5  A    between atoms: _7  and  _8
REMARK    6  A    between atoms: _12  and  _13
REMARK    7  A    between atoms: _18  and  _20
REMARK    8  A    between atoms: _20  and  _21
REMARK    9  A    between atoms: _20  and  _23
REMARK   10  A    between atoms: _26  and  _28
REMARK   11  A    between atoms: _28  and  _29
REMARK   12  A    between atoms: _28  and  _31
REMARK   13  A    between atoms: _31  and  _32
REMARK   14  A    between atoms: _35  and  _37
REMARK   15  A    between atoms: _37  and  _38
REMARK   16  A    between atoms: _37  and  _40
REMARK   17  A    between atoms: _40  and  _41
REMARK   18  A    between atoms: _46  and  _48
REMARK   19  A    between atoms: _48  and  _49
REMARK   20  A    between atoms: _48  and  _51
REMARK   21  A    between atoms: _51  and  _52
REMARK   22  A    between atoms: _55  and  _57
REMARK   23  A    between atoms: _57  and  _58
REMARK   24  A    between atoms: _57  and  _60
REMARK   25  A    between atoms: _62  and  _64
REMARK   26  A    between atoms: _64  and  _65
REMARK   27  A    between atoms: _64  and  _67
REMARK   28  A    between atoms: _67  and  _68
REMARK   29  A    between atoms: _68  and  _69
REMARK   30  A    between atoms: _74  and  _76
REMARK   31  A    between atoms: _76  and  _77
REMARK   32  A    between atoms: _80  and  _82
REMARK   33  A    between atoms: _82  and  _83
REMARK   34  A    between atoms: _86  and  _88
REMARK   35  A    between atoms: _88  and  _89
REMARK   36  A    between atoms: _88  and  _91
REMARK   37  A    between atoms: _91  and  _92
REMARK   38  A    between atoms: _95  and  _97
REMARK   39  A    between atoms: _97  and  _98
REMARK   40  A    between atoms: _97  and  _100
REMARK   41  A    between atoms: _100  and  _101
REMARK   42  A    between atoms: _101  and  _102
REMARK   43  A    between atoms: _102  and  _103
REMARK   44  A    between atoms: _103  and  _104
REMARK   45  A    between atoms: _108  and  _110
REMARK   46  A    between atoms: _110  and  _111
REMARK   47  A    between atoms: _110  and  _113
REMARK   48  A    between atoms: _113  and  _114
REMARK   49  A    between atoms: _114  and  _115
REMARK   50  A    between atoms: _120  and  _122
REMARK   51  A    between atoms: _122  and  _123
REMARK   52  A    between atoms: _122  and  _125
REMARK   53  A    between atoms: _125  and  _126
REMARK   54  A    between atoms: _129  and  _131
REMARK   55  A    between atoms: _131  and  _132
REMARK   56  A    between atoms: _131  and  _134
REMARK   57  A    between atoms: _134  and  _135
REMARK   58  A    between atoms: _138  and  _140
REMARK   59  A    between atoms: _140  and  _141
REMARK   60  A    between atoms: _140  and  _143
REMARK   61  A    between atoms: _143  and  _144
REMARK   62  A    between atoms: _154  and  _156
REMARK   63  A    between atoms: _156  and  _157
REMARK   64  A    between atoms: _156  and  _159
REMARK   65  A    between atoms: _159  and  _160
REMARK   66  A    between atoms: _165  and  _167
REMARK   67  A    between atoms: _167  and  _168
REMARK   68  A    between atoms: _167  and  _170
REMARK   69  A    between atoms: _170  and  _171
REMARK   70  A    between atoms: _171  and  _172
REMARK   71  A    between atoms: _175  and  _177
REMARK   72  A    between atoms: _177  and  _178
REMARK   73  A    between atoms: _177  and  _180
REMARK   74  A    between atoms: _180  and  _181
REMARK   75  A    between atoms: _184  and  _186
REMARK   76  A    between atoms: _186  and  _187
REMARK   77  A    between atoms: _186  and  _189
REMARK   78  A    between atoms: _189  and  _190
REMARK   79  A    between atoms: _193  and  _195
REMARK   80  A    between atoms: _195  and  _196
REMARK   81  A    between atoms: _195  and  _198
REMARK   82  A    between atoms: _198  and  _199
REMARK   83  A    between atoms: _202  and  _204
REMARK   84  A    between atoms: _204  and  _205
REMARK   85  A    between atoms: _208  and  _210
REMARK   86  A    between atoms: _210  and  _211
REMARK   87  A    between atoms: _210  and  _213
REMARK   88  A    between atoms: _213  and  _214
REMARK   89  A    between atoms: _216  and  _218
REMARK   90  A    between atoms: _218  and  _219
REMARK   91  A    between atoms: _218  and  _221
REMARK   92  A    between atoms: _221  and  _222
REMARK   93  A    between atoms: _228  and  _230
REMARK   94  A    between atoms: _230  and  _231
REMARK   95  A    between atoms: _230  and  _233
REMARK   96  A    between atoms: _233  and  _234
REMARK   97  A    between atoms: _236  and  _238
REMARK   98  A    between atoms: _238  and  _239
REMARK   99  A    between atoms: _238  and  _241
REMARK  100  A    between atoms: _241  and  _242
REMARK  101  A    between atoms: _247  and  _249
REMARK  102  A    between atoms: _249  and  _250
REMARK  103  A    between atoms: _249  and  _252
REMARK  104  A    between atoms: _252  and  _253
REMARK  105  A    between atoms: _253  and  _254
REMARK  106  A    between atoms: _254  and  _255
REMARK  107  A    between atoms: _264  and  _266
REMARK  108  A    between atoms: _266  and  _267
REMARK  109  A    between atoms: _266  and  _269
REMARK  110  A    between atoms: _269  and  _270
REMARK  111  A    between atoms: _272  and  _274
REMARK  112  A    between atoms: _274  and  _275
REMARK  113  A    between atoms: _274  and  _277
REMARK  114  A    between atoms: _277  and  _278
REMARK  115  A    between atoms: _281  and  _283
REMARK  116  A    between atoms: _283  and  _284
REMARK  117  A    between atoms: _283  and  _286
REMARK  118  A    between atoms: _286  and  _287
REMARK  119  A    between atoms: _290  and  _292
REMARK  120  A    between atoms: _292  and  _293
REMARK  121  A    between atoms: _292  and  _295
REMARK  122  A    between atoms: _295  and  _296
REMARK  123  A    between atoms: _299  and  _301
REMARK  124  A    between atoms: _301  and  _302
REMARK  125  A    between atoms: _305  and  _307
REMARK  126  A    between atoms: _307  and  _308
REMARK  127  A    between atoms: _307  and  _310
REMARK  128  A    between atoms: _310  and  _311
REMARK  129  A    between atoms: _314  and  _316
REMARK  130  A    between atoms: _316  and  _317
REMARK  131  A    between atoms: _319  and  _321
REMARK  132  A    between atoms: _321  and  _322
REMARK  133  A    between atoms: _321  and  _324
REMARK  134  A    between atoms: _324  and  _325
REMARK  135  A    between atoms: _328  and  _330
REMARK  136  A    between atoms: _330  and  _331
REMARK  137  A    between atoms: _330  and  _333
REMARK  138  A    between atoms: _336  and  _338
REMARK  139  A    between atoms: _338  and  _339
REMARK  140  A    between atoms: _342  and  _344
REMARK  141  A    between atoms: _344  and  _345
REMARK  142  A    between atoms: _348  and  _350
REMARK  143  A    between atoms: _350  and  _351
REMARK  144  A    between atoms: _353  and  _355
REMARK  145  A    between atoms: _355  and  _356
REMARK  146  A    between atoms: _355  and  _358
REMARK  147  A    between atoms: _361  and  _363
REMARK  148  A    between atoms: _363  and  _364
REMARK  149  A    between atoms: _366  and  _368
REMARK  150  A    between atoms: _368  and  _369
REMARK  151  A    between atoms: _372  and  _374
REMARK  152  A    between atoms: _374  and  _375
REMARK  153  A    between atoms: _374  and  _377
REMARK  154  A    between atoms: _377  and  _378
REMARK  155  A    between atoms: _381  and  _383
REMARK  156  A    between atoms: _383  and  _384
REMARK  157  A    between atoms: _383  and  _386
REMARK  158  A    between atoms: _386  and  _387
REMARK  159  A    between atoms: _393  and  _395
REMARK  160  A    between atoms: _395  and  _396
REMARK  161  A    between atoms: _395  and  _398
REMARK  162  A    between atoms: _398  and  _399
REMARK  163  A    between atoms: _402  and  _404
REMARK  164  A    between atoms: _404  and  _405
REMARK  165  A    between atoms: _404  and  _407
REMARK  166  A    between atoms: _407  and  _408
REMARK  167  A    between atoms: _408  and  _409
REMARK  168  A    between atoms: _409  and  _410
REMARK  169  A    between atoms: _419  and  _421
REMARK  170  A    between atoms: _421  and  _422
REMARK  171  A    between atoms: _421  and  _424
REMARK  172  A    between atoms: _427  and  _429
REMARK  173  A    between atoms: _429  and  _430
REMARK  174  A    between atoms: _429  and  _432
REMARK  175  A    between atoms: _432  and  _433
REMARK  176  A    between atoms: _436  and  _438
REMARK  177  A    between atoms: _438  and  _439
REMARK  178  A    between atoms: _438  and  _441
REMARK  179  A    between atoms: _441  and  _442
REMARK  180  A    between atoms: _442  and  _443
REMARK  181  A    between atoms: _443  and  _444
REMARK  182  A    between atoms: _453  and  _455
REMARK  183  A    between atoms: _455  and  _456
REMARK  184  A    between atoms: _455  and  _458
REMARK  185  A    between atoms: _458  and  _459
REMARK  186  A    between atoms: _462  and  _464
REMARK  187  A    between atoms: _464  and  _465
REMARK  188  A    between atoms: _467  and  _469
REMARK  189  A    between atoms: _469  and  _470
REMARK  190  A    between atoms: _469  and  _472
REMARK  191  A    between atoms: _472  and  _473
REMARK  192  A    between atoms: _473  and  _474
REMARK  193  A    between atoms: _474  and  _475
REMARK  194  A    between atoms: _475  and  _476
REMARK  195  A    between atoms: _480  and  _482
REMARK  196  A    between atoms: _482  and  _483
REMARK  197  A    between atoms: _482  and  _485
REMARK  198  A    between atoms: _487  and  _489
REMARK  199  A    between atoms: _489  and  _490
REMARK  200  A    between atoms: _489  and  _492
REMARK  201  A    between atoms: _492  and  _493
REMARK  202  A    between atoms: _496  and  _498
REMARK  203  A    between atoms: _498  and  _499
REMARK  204  A    between atoms: _498  and  _501
REMARK  205  A    between atoms: _501  and  _502
REMARK  206  A    between atoms: _502  and  _503
REMARK  207  A    between atoms: _506  and  _508
REMARK  208  A    between atoms: _508  and  _509
REMARK  209  A    between atoms: _508  and  _511
REMARK  210  A    between atoms: _511  and  _512
REMARK  211  A    between atoms: _517  and  _519
REMARK  212  A    between atoms: _519  and  _520
REMARK  213  A    between atoms: _519  and  _522
REMARK  214  A    between atoms: _522  and  _523
REMARK  215  A    between atoms: _526  and  _528
REMARK  216  A    between atoms: _528  and  _529
REMARK  217  A    between atoms: _528  and  _531
REMARK  218  A    between atoms: _531  and  _532
REMARK  219  A    between atoms: _538  and  _540
REMARK  220  A    between atoms: _540  and  _541
REMARK  221  A    between atoms: _540  and  _543
REMARK  222  A    between atoms: _543  and  _544
REMARK  223  A    between atoms: _550  and  _552
REMARK  224  A    between atoms: _552  and  _553
REMARK  225  A    between atoms: _552  and  _555
REMARK  226  A    between atoms: _555  and  _556
REMARK  227  A    between atoms: _559  and  _561
REMARK  228  A    between atoms: _561  and  _562
REMARK  229  A    between atoms: _561  and  _564
REMARK  230  A    between atoms: _564  and  _565
REMARK  231  A    between atoms: _568  and  _570
REMARK  232  A    between atoms: _570  and  _571
REMARK  233  A    between atoms: _570  and  _573
REMARK  234  A    between atoms: _573  and  _574
REMARK                            x       y       z     vdW  Elec       q    Type
REMARK                         _______ _______ _______ _____ _____    ______ ____
ROOT
ATOM      1  O   HOH     1      72.694  49.121  37.446  0.00  0.00    +0.000 OA
ENDROOT
TORSDOF 0
