REMARK  Name = ../refined-set-2016/1fzo/1fzo_pocket.pdb
REMARK  339 active torsions:
REMARK  status: ('A' for Active; 'I' for Inactive)
REMARK    1  A    between atoms: _1  and  _3
REMARK    2  A    between atoms: _3  and  _4
REMARK    3  A    between atoms: _3  and  _6
REMARK    4  A    between atoms: _6  and  _7
REMARK    5  A    between atoms: _10  and  _12
REMARK    6  A    between atoms: _12  and  _13
REMARK    7  A    between atoms: _12  and  _15
REMARK    8  A    between atoms: _15  and  _16
REMARK    9  A    between atoms: _16  and  _17
REMARK   10  A    between atoms: _17  and  _18
REMARK   11  A    between atoms: _27  and  _29
REMARK   12  A    between atoms: _29  and  _30
REMARK   13  A    between atoms: _29  and  _32
REMARK   14  A    between atoms: _32  and  _33
REMARK   15  A    between atoms: _38  and  _39
REMARK   16  A    between atoms: _41  and  _43
REMARK   17  A    between atoms: _43  and  _44
REMARK   18  A    between atoms: _43  and  _46
REMARK   19  A    between atoms: _46  and  _47
REMARK   20  A    between atoms: _53  and  _55
REMARK   21  A    between atoms: _55  and  _56
REMARK   22  A    between atoms: _55  and  _58
REMARK   23  A    between atoms: _61  and  _63
REMARK   24  A    between atoms: _63  and  _64
REMARK   25  A    between atoms: _63  and  _66
REMARK   26  A    between atoms: _66  and  _67
REMARK   27  A    between atoms: _70  and  _72
REMARK   28  A    between atoms: _72  and  _73
REMARK   29  A    between atoms: _72  and  _75
REMARK   30  A    between atoms: _75  and  _76
REMARK   31  A    between atoms: _82  and  _84
REMARK   32  A    between atoms: _84  and  _85
REMARK   33  A    between atoms: _84  and  _87
REMARK   34  A    between atoms: _87  and  _88
REMARK   35  A    between atoms: _91  and  _93
REMARK   36  A    between atoms: _93  and  _94
REMARK   37  A    between atoms: _93  and  _96
REMARK   38  A    between atoms: _96  and  _97
REMARK   39  A    between atoms: _99  and  _101
REMARK   40  A    between atoms: _101  and  _102
REMARK   41  A    between atoms: _101  and  _104
REMARK   42  A    between atoms: _107  and  _109
REMARK   43  A    between atoms: _109  and  _110
REMARK   44  A    between atoms: _112  and  _114
REMARK   45  A    between atoms: _114  and  _115
REMARK   46  A    between atoms: _114  and  _117
REMARK   47  A    between atoms: _120  and  _122
REMARK   48  A    between atoms: _122  and  _123
REMARK   49  A    between atoms: _122  and  _125
REMARK   50  A    between atoms: _125  and  _126
REMARK   51  A    between atoms: _132  and  _134
REMARK   52  A    between atoms: _134  and  _135
REMARK   53  A    between atoms: _134  and  _137
REMARK   54  A    between atoms: _140  and  _142
REMARK   55  A    between atoms: _142  and  _143
REMARK   56  A    between atoms: _142  and  _145
REMARK   57  A    between atoms: _145  and  _146
REMARK   58  A    between atoms: _151  and  _152
REMARK   59  A    between atoms: _154  and  _156
REMARK   60  A    between atoms: _156  and  _157
REMARK   61  A    between atoms: _156  and  _159
REMARK   62  A    between atoms: _159  and  _160
REMARK   63  A    between atoms: _160  and  _161
REMARK   64  A    between atoms: _163  and  _165
REMARK   65  A    between atoms: _165  and  _166
REMARK   66  A    between atoms: _165  and  _168
REMARK   67  A    between atoms: _168  and  _169
REMARK   68  A    between atoms: _169  and  _170
REMARK   69  A    between atoms: _173  and  _175
REMARK   70  A    between atoms: _175  and  _176
REMARK   71  A    between atoms: _175  and  _178
REMARK   72  A    between atoms: _178  and  _179
REMARK   73  A    between atoms: _179  and  _180
REMARK   74  A    between atoms: _183  and  _185
REMARK   75  A    between atoms: _185  and  _186
REMARK   76  A    between atoms: _185  and  _188
REMARK   77  A    between atoms: _188  and  _189
REMARK   78  A    between atoms: _194  and  _195
REMARK   79  A    between atoms: _197  and  _199
REMARK   80  A    between atoms: _199  and  _200
REMARK   81  A    between atoms: _199  and  _202
REMARK   82  A    between atoms: _202  and  _203
REMARK   83  A    between atoms: _213  and  _215
REMARK   84  A    between atoms: _215  and  _216
REMARK   85  A    between atoms: _215  and  _218
REMARK   86  A    between atoms: _218  and  _219
REMARK   87  A    between atoms: _219  and  _220
REMARK   88  A    between atoms: _223  and  _225
REMARK   89  A    between atoms: _225  and  _226
REMARK   90  A    between atoms: _225  and  _228
REMARK   91  A    between atoms: _228  and  _229
REMARK   92  A    between atoms: _229  and  _230
REMARK   93  A    between atoms: _230  and  _231
REMARK   94  A    between atoms: _240  and  _242
REMARK   95  A    between atoms: _242  and  _243
REMARK   96  A    between atoms: _242  and  _245
REMARK   97  A    between atoms: _245  and  _246
REMARK   98  A    between atoms: _246  and  _247
REMARK   99  A    between atoms: _250  and  _252
REMARK  100  A    between atoms: _252  and  _253
REMARK  101  A    between atoms: _252  and  _255
REMARK  102  A    between atoms: _255  and  _256
REMARK  103  A    between atoms: _259  and  _261
REMARK  104  A    between atoms: _261  and  _262
REMARK  105  A    between atoms: _261  and  _264
REMARK  106  A    between atoms: _264  and  _265
REMARK  107  A    between atoms: _265  and  _266
REMARK  108  A    between atoms: _271  and  _273
REMARK  109  A    between atoms: _273  and  _274
REMARK  110  A    between atoms: _273  and  _276
REMARK  111  A    between atoms: _276  and  _277
REMARK  112  A    between atoms: _277  and  _278
REMARK  113  A    between atoms: _278  and  _279
REMARK  114  A    between atoms: _279  and  _280
REMARK  115  A    between atoms: _284  and  _286
REMARK  116  A    between atoms: _286  and  _287
REMARK  117  A    between atoms: _290  and  _292
REMARK  118  A    between atoms: _292  and  _293
REMARK  119  A    between atoms: _295  and  _297
REMARK  120  A    between atoms: _297  and  _298
REMARK  121  A    between atoms: _297  and  _300
REMARK  122  A    between atoms: _300  and  _301
REMARK  123  A    between atoms: _306  and  _308
REMARK  124  A    between atoms: _308  and  _309
REMARK  125  A    between atoms: _308  and  _311
REMARK  126  A    between atoms: _311  and  _312
REMARK  127  A    between atoms: _312  and  _313
REMARK  128  A    between atoms: _316  and  _318
REMARK  129  A    between atoms: _318  and  _319
REMARK  130  A    between atoms: _318  and  _321
REMARK  131  A    between atoms: _321  and  _322
REMARK  132  A    between atoms: _322  and  _323
REMARK  133  A    between atoms: _328  and  _330
REMARK  134  A    between atoms: _330  and  _331
REMARK  135  A    between atoms: _330  and  _333
REMARK  136  A    between atoms: _333  and  _334
REMARK  137  A    between atoms: _336  and  _338
REMARK  138  A    between atoms: _338  and  _339
REMARK  139  A    between atoms: _338  and  _341
REMARK  140  A    between atoms: _341  and  _342
REMARK  141  A    between atoms: _348  and  _350
REMARK  142  A    between atoms: _350  and  _351
REMARK  143  A    between atoms: _350  and  _353
REMARK  144  A    between atoms: _356  and  _358
REMARK  145  A    between atoms: _358  and  _359
REMARK  146  A    between atoms: _358  and  _361
REMARK  147  A    between atoms: _361  and  _362
REMARK  148  A    between atoms: _365  and  _367
REMARK  149  A    between atoms: _367  and  _368
REMARK  150  A    between atoms: _367  and  _370
REMARK  151  A    between atoms: _370  and  _371
REMARK  152  A    between atoms: _374  and  _376
REMARK  153  A    between atoms: _376  and  _377
REMARK  154  A    between atoms: _376  and  _379
REMARK  155  A    between atoms: _379  and  _380
REMARK  156  A    between atoms: _383  and  _385
REMARK  157  A    between atoms: _385  and  _386
REMARK  158  A    between atoms: _385  and  _388
REMARK  159  A    between atoms: _388  and  _389
REMARK  160  A    between atoms: _392  and  _394
REMARK  161  A    between atoms: _394  and  _395
REMARK  162  A    between atoms: _394  and  _397
REMARK  163  A    between atoms: _397  and  _398
REMARK  164  A    between atoms: _403  and  _404
REMARK  165  A    between atoms: _406  and  _408
REMARK  166  A    between atoms: _408  and  _409
REMARK  167  A    between atoms: _408  and  _411
REMARK  168  A    between atoms: _411  and  _412
REMARK  169  A    between atoms: _417  and  _418
REMARK  170  A    between atoms: _420  and  _422
REMARK  171  A    between atoms: _422  and  _423
REMARK  172  A    between atoms: _422  and  _425
REMARK  173  A    between atoms: _425  and  _426
REMARK  174  A    between atoms: _429  and  _431
REMARK  175  A    between atoms: _431  and  _432
REMARK  176  A    between atoms: _431  and  _434
REMARK  177  A    between atoms: _434  and  _435
REMARK  178  A    between atoms: _435  and  _436
REMARK  179  A    between atoms: _441  and  _443
REMARK  180  A    between atoms: _443  and  _444
REMARK  181  A    between atoms: _443  and  _446
REMARK  182  A    between atoms: _449  and  _451
REMARK  183  A    between atoms: _451  and  _452
REMARK  184  A    between atoms: _451  and  _454
REMARK  185  A    between atoms: _454  and  _455
REMARK  186  A    between atoms: _458  and  _460
REMARK  187  A    between atoms: _460  and  _461
REMARK  188  A    between atoms: _460  and  _463
REMARK  189  A    between atoms: _463  and  _464
REMARK  190  A    between atoms: _466  and  _468
REMARK  191  A    between atoms: _468  and  _469
REMARK  192  A    between atoms: _471  and  _473
REMARK  193  A    between atoms: _473  and  _474
REMARK  194  A    between atoms: _473  and  _476
REMARK  195  A    between atoms: _476  and  _477
REMARK  196  A    between atoms: _477  and  _772
REMARK  197  A    between atoms: _478  and  _480
REMARK  198  A    between atoms: _480  and  _481
REMARK  199  A    between atoms: _480  and  _483
REMARK  200  A    between atoms: _483  and  _484
REMARK  201  A    between atoms: _489  and  _490
REMARK  202  A    between atoms: _492  and  _494
REMARK  203  A    between atoms: _494  and  _495
REMARK  204  A    between atoms: _494  and  _497
REMARK  205  A    between atoms: _497  and  _498
REMARK  206  A    between atoms: _498  and  _499
REMARK  207  A    between atoms: _504  and  _506
REMARK  208  A    between atoms: _506  and  _507
REMARK  209  A    between atoms: _506  and  _509
REMARK  210  A    between atoms: _509  and  _510
REMARK  211  A    between atoms: _510  and  _511
REMARK  212  A    between atoms: _516  and  _518
REMARK  213  A    between atoms: _518  and  _519
REMARK  214  A    between atoms: _518  and  _521
REMARK  215  A    between atoms: _521  and  _522
REMARK  216  A    between atoms: _527  and  _528
REMARK  217  A    between atoms: _530  and  _532
REMARK  218  A    between atoms: _532  and  _533
REMARK  219  A    between atoms: _536  and  _538
REMARK  220  A    between atoms: _538  and  _539
REMARK  221  A    between atoms: _538  and  _541
REMARK  222  A    between atoms: _541  and  _542
REMARK  223  A    between atoms: _547  and  _548
REMARK  224  A    between atoms: _550  and  _552
REMARK  225  A    between atoms: _552  and  _553
REMARK  226  A    between atoms: _552  and  _555
REMARK  227  A    between atoms: _555  and  _556
REMARK  228  A    between atoms: _561  and  _562
REMARK  229  A    between atoms: _564  and  _566
REMARK  230  A    between atoms: _566  and  _567
REMARK  231  A    between atoms: _566  and  _569
REMARK  232  A    between atoms: _569  and  _570
REMARK  233  A    between atoms: _573  and  _575
REMARK  234  A    between atoms: _575  and  _576
REMARK  235  A    between atoms: _575  and  _578
REMARK  236  A    between atoms: _578  and  _579
REMARK  237  A    between atoms: _589  and  _591
REMARK  238  A    between atoms: _591  and  _592
REMARK  239  A    between atoms: _595  and  _597
REMARK  240  A    between atoms: _597  and  _598
REMARK  241  A    between atoms: _601  and  _603
REMARK  242  A    between atoms: _603  and  _604
REMARK  243  A    between atoms: _603  and  _606
REMARK  244  A    between atoms: _606  and  _607
REMARK  245  A    between atoms: _610  and  _612
REMARK  246  A    between atoms: _612  and  _613
REMARK  247  A    between atoms: _612  and  _615
REMARK  248  A    between atoms: _615  and  _616
REMARK  249  A    between atoms: _619  and  _621
REMARK  250  A    between atoms: _621  and  _622
REMARK  251  A    between atoms: _621  and  _624
REMARK  252  A    between atoms: _624  and  _625
REMARK  253  A    between atoms: _628  and  _630
REMARK  254  A    between atoms: _630  and  _631
REMARK  255  A    between atoms: _630  and  _633
REMARK  256  A    between atoms: _633  and  _634
REMARK  257  A    between atoms: _634  and  _635
REMARK  258  A    between atoms: _635  and  _636
REMARK  259  A    between atoms: _636  and  _637
REMARK  260  A    between atoms: _641  and  _643
REMARK  261  A    between atoms: _643  and  _644
REMARK  262  A    between atoms: _643  and  _646
REMARK  263  A    between atoms: _646  and  _647
REMARK  264  A    between atoms: _652  and  _654
REMARK  265  A    between atoms: _654  and  _655
REMARK  266  A    between atoms: _654  and  _657
REMARK  267  A    between atoms: _657  and  _658
REMARK  268  A    between atoms: _658  and  _659
REMARK  269  A    between atoms: _659  and  _660
REMARK  270  A    between atoms: _660  and  _661
REMARK  271  A    between atoms: _665  and  _667
REMARK  272  A    between atoms: _667  and  _668
REMARK  273  A    between atoms: _667  and  _670
REMARK  274  A    between atoms: _670  and  _671
REMARK  275  A    between atoms: _681  and  _683
REMARK  276  A    between atoms: _683  and  _684
REMARK  277  A    between atoms: _687  and  _689
REMARK  278  A    between atoms: _689  and  _690
REMARK  279  A    between atoms: _692  and  _694
REMARK  280  A    between atoms: _694  and  _695
REMARK  281  A    between atoms: _694  and  _697
REMARK  282  A    between atoms: _697  and  _698
REMARK  283  A    between atoms: _698  and  _699
REMARK  284  A    between atoms: _702  and  _704
REMARK  285  A    between atoms: _704  and  _705
REMARK  286  A    between atoms: _708  and  _710
REMARK  287  A    between atoms: _710  and  _711
REMARK  288  A    between atoms: _710  and  _713
REMARK  289  A    between atoms: _713  and  _714
REMARK  290  A    between atoms: _714  and  _715
REMARK  291  A    between atoms: _715  and  _716
REMARK  292  A    between atoms: _725  and  _727
REMARK  293  A    between atoms: _727  and  _728
REMARK  294  A    between atoms: _727  and  _730
REMARK  295  A    between atoms: _730  and  _731
REMARK  296  A    between atoms: _734  and  _736
REMARK  297  A    between atoms: _736  and  _737
REMARK  298  A    between atoms: _736  and  _739
REMARK  299  A    between atoms: _739  and  _740
REMARK  300  A    between atoms: _745  and  _746
REMARK  301  A    between atoms: _748  and  _750
REMARK  302  A    between atoms: _750  and  _751
REMARK  303  A    between atoms: _750  and  _753
REMARK  304  A    between atoms: _753  and  _754
REMARK  305  A    between atoms: _757  and  _759
REMARK  306  A    between atoms: _759  and  _760
REMARK  307  A    between atoms: _759  and  _762
REMARK  308  A    between atoms: _762  and  _763
REMARK  309  A    between atoms: _766  and  _768
REMARK  310  A    between atoms: _768  and  _769
REMARK  311  A    between atoms: _768  and  _771
REMARK  312  A    between atoms: _771  and  _772
REMARK  313  A    between atoms: _773  and  _775
REMARK  314  A    between atoms: _775  and  _776
REMARK  315  A    between atoms: _775  and  _778
REMARK  316  A    between atoms: _781  and  _783
REMARK  317  A    between atoms: _783  and  _784
REMARK  318  A    between atoms: _783  and  _786
REMARK  319  A    between atoms: _786  and  _787
REMARK  320  A    between atoms: _787  and  _788
REMARK  321  A    between atoms: _791  and  _793
REMARK  322  A    between atoms: _793  and  _794
REMARK  323  A    between atoms: _793  and  _796
REMARK  324  A    between atoms: _796  and  _797
REMARK  325  A    between atoms: _807  and  _809
REMARK  326  A    between atoms: _809  and  _810
REMARK  327  A    between atoms: _809  and  _812
REMARK  328  A    between atoms: _812  and  _813
REMARK  329  A    between atoms: _816  and  _818
REMARK  330  A    between atoms: _818  and  _819
REMARK  331  A    between atoms: _818  and  _821
REMARK  332  A    between atoms: _821  and  _822
REMARK  333  A    between atoms: _822  and  _823
REMARK  334  A    between atoms: _823  and  _824
REMARK  335  A    between atoms: _833  and  _835
REMARK  336  A    between atoms: _835  and  _836
REMARK  337  A    between atoms: _835  and  _838
REMARK  338  A    between atoms: _838  and  _839
REMARK  339  A    between atoms: _844  and  _845
REMARK                            x       y       z     vdW  Elec       q    Type
REMARK                         _______ _______ _______ _____ _____    ______ ____
ROOT
ATOM      1  CA  TYR A   3      46.861  50.313  -0.448  0.00  0.00    +0.153 C 
ENDROOT
BRANCH   1   4
ATOM      2  C   ARG A   2      49.115  49.695   0.200  0.00  0.00    +0.241 C 
ATOM      3  O   ARG A   2      48.774  49.415   1.335  0.00  0.00    -0.273 OA
ATOM      4  N   TYR A   3      48.277  50.138  -0.724  0.00  0.00    -0.297 N 
ATOM      5  H   TYR A   3      48.641  50.366  -1.671  0.00  0.00    +0.150 HD
BRANCH   2   6
ATOM      6  CA  ARG A   2      50.547  49.516  -0.248  0.00  0.00    +0.149 C 
BRANCH   6   8
ATOM      7  C   LEU A   1      52.560  50.585   0.569  0.00  0.00    +0.238 C 
ATOM      8  N   ARG A   2      51.493  49.832   0.808  0.00  0.00    -0.297 N 
ATOM      9  H   ARG A   2      51.332  49.462   1.767  0.00  0.00    +0.150 HD
ATOM     10  O   LEU A   1      52.802  51.054  -0.542  0.00  0.00    -0.274 OA
BRANCH   7  11
ATOM     11  CA  LEU A   1      53.520  50.805   1.729  0.00  0.00    +0.145 C 
BRANCH  11  12
ATOM     12  N   LEU A   1      54.760  50.220   1.215  0.00  0.00    -0.238 NA
ATOM     13  H   LEU A   1      55.146  50.581   0.319  0.00  0.00    +0.142 HD
ENDBRANCH  11  12
BRANCH  11  14
ATOM     14  CB  LEU A   1      53.671  52.306   2.026  0.00  0.00    +0.026 C 
BRANCH  14  15
ATOM     15  CG  LEU A   1      52.341  53.003   2.383  0.00  0.00    +0.002 C 
ATOM     16  CD2 LEU A   1      51.630  52.323   3.547  0.00  0.00    +0.000 C 
ATOM     17  CD1 LEU A   1      52.650  54.472   2.763  0.00  0.00    +0.000 C 
ENDBRANCH  14  15
ENDBRANCH  11  14
ENDBRANCH   7  11
ENDBRANCH   6   8
BRANCH   6  18
ATOM     18  CB  ARG A   2      50.721  48.050  -0.687  0.00  0.00    +0.033 C 
BRANCH  18  19
ATOM     19  CG  ARG A   2      52.062  47.744  -1.329  0.00  0.00    +0.045 C 
BRANCH  19  20
ATOM     20  CD  ARG A   2      52.274  46.230  -1.474  0.00  0.00    +0.174 C 
BRANCH  20  21
ATOM     21  NE  ARG A   2      53.581  45.957  -2.062  0.00  0.00    -0.265 N 
ATOM     22  CZ  ARG A   2      54.212  44.794  -1.961  0.00  0.00    +0.342 C 
ATOM     23  NH2 ARG A   2      53.652  43.792  -1.293  0.00  0.00    -0.292 N 
ATOM     24 HH21 ARG A   2      52.720  43.919  -0.850  0.00  0.00    +0.255 HD
ATOM     25 HH22 ARG A   2      54.146  42.880  -1.213  0.00  0.00    +0.255 HD
ATOM     26  NH1 ARG A   2      55.403  44.637  -2.517  0.00  0.00    -0.292 N 
ATOM     27 HH11 ARG A   2      55.898  43.726  -2.438  0.00  0.00    +0.255 HD
ATOM     28 HH12 ARG A   2      55.844  45.425  -3.033  0.00  0.00    +0.255 HD
ATOM     29  HE  ARG A   2      54.047  46.721  -2.593  0.00  0.00    +0.259 HD
ENDBRANCH  20  21
ENDBRANCH  19  20
ENDBRANCH  18  19
ENDBRANCH   6  18
ENDBRANCH   2   6
ENDBRANCH   1   4
BRANCH   1  30
ATOM     30  C   TYR A   3      46.076  49.515  -1.470  0.00  0.00    +0.241 C 
ATOM     31  N   PHE A   4      45.272  48.576  -0.978  0.00  0.00    -0.297 N 
ATOM     32  H   PHE A   4      45.244  48.422   0.050  0.00  0.00    +0.150 HD
ATOM     33  O   TYR A   3      46.223  49.724  -2.679  0.00  0.00    -0.273 OA
BRANCH  31  34
ATOM     34  CA  PHE A   4      44.430  47.758  -1.839  0.00  0.00    +0.153 C 
BRANCH  34  35
ATOM     35  C   PHE A   4      43.025  48.284  -1.738  0.00  0.00    +0.241 C 
ATOM     36  O   PHE A   4      42.430  48.278  -0.662  0.00  0.00    -0.273 OA
ATOM     37  N   VAL A   5      42.492  48.716  -2.870  0.00  0.00    -0.297 N 
ATOM     38  H   VAL A   5      43.053  48.656  -3.744  0.00  0.00    +0.150 HD
BRANCH  37  39
ATOM     39  CA  VAL A   5      41.148  49.273  -2.935  0.00  0.00    +0.149 C 
BRANCH  39  40
ATOM     40  C   VAL A   5      40.254  48.400  -3.784  0.00  0.00    +0.241 C 
ATOM     41  N   THR A   6      39.048  48.154  -3.284  0.00  0.00    -0.296 N 
ATOM     42  H   THR A   6      38.798  48.560  -2.360  0.00  0.00    +0.150 HD
ATOM     43  O   VAL A   5      40.650  47.978  -4.862  0.00  0.00    -0.273 OA
BRANCH  41  44
ATOM     44  CA  THR A   6      38.064  47.340  -3.978  0.00  0.00    +0.164 C 
BRANCH  44  45
ATOM     45  C   THR A   6      36.709  48.021  -3.905  0.00  0.00    +0.229 C 
ATOM     46  O   THR A   6      36.282  48.430  -2.831  0.00  0.00    -0.286 OA
ENDBRANCH  44  45
BRANCH  44  47
ATOM     47  CB  THR A   6      37.962  45.955  -3.298  0.00  0.00    +0.136 C 
ATOM     48  CG2 THR A   6      36.980  45.059  -4.016  0.00  0.00    +0.034 C 
BRANCH  47  49
ATOM     49  OG1 THR A   6      39.263  45.348  -3.286  0.00  0.00    -0.382 OA
ATOM     50  HG1 THR A   6      39.890  45.924  -2.782  0.00  0.00    +0.210 HD
ENDBRANCH  47  49
ENDBRANCH  44  47
ENDBRANCH  41  44
ENDBRANCH  39  40
BRANCH  39  51
ATOM     51  CB  VAL A   5      41.169  50.706  -3.547  0.00  0.00    +0.027 C 
ATOM     52  CG2 VAL A   5      41.810  51.662  -2.548  0.00  0.00    +0.002 C 
ATOM     53  CG1 VAL A   5      39.735  51.170  -3.891  0.00  0.00    +0.002 C 
ENDBRANCH  39  51
ENDBRANCH  37  39
ENDBRANCH  34  35
BRANCH  34  54
ATOM     54  CB  PHE A   4      44.444  46.296  -1.387  0.00  0.00    +0.055 C 
BRANCH  54  55
ATOM     55  CG  PHE A   4      45.766  45.653  -1.515  0.00  0.00    -0.020 A 
ATOM     56  CD2 PHE A   4      46.780  45.925  -0.605  0.00  0.00    -0.004 A 
ATOM     57  CE2 PHE A   4      48.026  45.328  -0.732  0.00  0.00    -0.000 A 
ATOM     58  CZ  PHE A   4      48.273  44.444  -1.785  0.00  0.00    -0.000 A 
ATOM     59  CE1 PHE A   4      47.262  44.167  -2.698  0.00  0.00    -0.000 A 
ATOM     60  CD1 PHE A   4      46.021  44.761  -2.569  0.00  0.00    -0.004 A 
ENDBRANCH  54  55
ENDBRANCH  34  54
ENDBRANCH  31  34
ENDBRANCH   1  30
BRANCH   1  61
ATOM     61  CB  TYR A   3      46.479  51.792  -0.535  0.00  0.00    +0.055 C 
BRANCH  61  62
ATOM     62  CG  TYR A   3      46.969  52.597   0.645  0.00  0.00    -0.020 A 
ATOM     63  CD2 TYR A   3      46.222  52.651   1.827  0.00  0.00    -0.001 A 
ATOM     64  CE2 TYR A   3      46.700  53.330   2.951  0.00  0.00    +0.036 A 
ATOM     65  CZ  TYR A   3      47.931  53.961   2.904  0.00  0.00    +0.134 A 
ATOM     66  CE1 TYR A   3      48.700  53.932   1.738  0.00  0.00    +0.036 A 
ATOM     67  CD1 TYR A   3      48.206  53.246   0.611  0.00  0.00    -0.001 A 
BRANCH  65  68
ATOM     68  OH  TYR A   3      48.392  54.607   4.034  0.00  0.00    -0.506 OA
ATOM     69  HH  TYR A   3      47.720  54.525   4.757  0.00  0.00    +0.292 HD
ENDBRANCH  65  68
ENDBRANCH  61  62
ENDBRANCH   1  61
TORSDOF 26
REMARK  Name = ../refined-set-2016/1fzo/1fzo_pocket.pdb
REMARK  339 active torsions:
REMARK  status: ('A' for Active; 'I' for Inactive)
REMARK    1  A    between atoms: _1  and  _3
REMARK    2  A    between atoms: _3  and  _4
REMARK    3  A    between atoms: _3  and  _6
REMARK    4  A    between atoms: _6  and  _7
REMARK    5  A    between atoms: _10  and  _12
REMARK    6  A    between atoms: _12  and  _13
REMARK    7  A    between atoms: _12  and  _15
REMARK    8  A    between atoms: _15  and  _16
REMARK    9  A    between atoms: _16  and  _17
REMARK   10  A    between atoms: _17  and  _18
REMARK   11  A    between atoms: _27  and  _29
REMARK   12  A    between atoms: _29  and  _30
REMARK   13  A    between atoms: _29  and  _32
REMARK   14  A    between atoms: _32  and  _33
REMARK   15  A    between atoms: _38  and  _39
REMARK   16  A    between atoms: _41  and  _43
REMARK   17  A    between atoms: _43  and  _44
REMARK   18  A    between atoms: _43  and  _46
REMARK   19  A    between atoms: _46  and  _47
REMARK   20  A    between atoms: _53  and  _55
REMARK   21  A    between atoms: _55  and  _56
REMARK   22  A    between atoms: _55  and  _58
REMARK   23  A    between atoms: _61  and  _63
REMARK   24  A    between atoms: _63  and  _64
REMARK   25  A    between atoms: _63  and  _66
REMARK   26  A    between atoms: _66  and  _67
REMARK   27  A    between atoms: _70  and  _72
REMARK   28  A    between atoms: _72  and  _73
REMARK   29  A    between atoms: _72  and  _75
REMARK   30  A    between atoms: _75  and  _76
REMARK   31  A    between atoms: _82  and  _84
REMARK   32  A    between atoms: _84  and  _85
REMARK   33  A    between atoms: _84  and  _87
REMARK   34  A    between atoms: _87  and  _88
REMARK   35  A    between atoms: _91  and  _93
REMARK   36  A    between atoms: _93  and  _94
REMARK   37  A    between atoms: _93  and  _96
REMARK   38  A    between atoms: _96  and  _97
REMARK   39  A    between atoms: _99  and  _101
REMARK   40  A    between atoms: _101  and  _102
REMARK   41  A    between atoms: _101  and  _104
REMARK   42  A    between atoms: _107  and  _109
REMARK   43  A    between atoms: _109  and  _110
REMARK   44  A    between atoms: _112  and  _114
REMARK   45  A    between atoms: _114  and  _115
REMARK   46  A    between atoms: _114  and  _117
REMARK   47  A    between atoms: _120  and  _122
REMARK   48  A    between atoms: _122  and  _123
REMARK   49  A    between atoms: _122  and  _125
REMARK   50  A    between atoms: _125  and  _126
REMARK   51  A    between atoms: _132  and  _134
REMARK   52  A    between atoms: _134  and  _135
REMARK   53  A    between atoms: _134  and  _137
REMARK   54  A    between atoms: _140  and  _142
REMARK   55  A    between atoms: _142  and  _143
REMARK   56  A    between atoms: _142  and  _145
REMARK   57  A    between atoms: _145  and  _146
REMARK   58  A    between atoms: _151  and  _152
REMARK   59  A    between atoms: _154  and  _156
REMARK   60  A    between atoms: _156  and  _157
REMARK   61  A    between atoms: _156  and  _159
REMARK   62  A    between atoms: _159  and  _160
REMARK   63  A    between atoms: _160  and  _161
REMARK   64  A    between atoms: _163  and  _165
REMARK   65  A    between atoms: _165  and  _166
REMARK   66  A    between atoms: _165  and  _168
REMARK   67  A    between atoms: _168  and  _169
REMARK   68  A    between atoms: _169  and  _170
REMARK   69  A    between atoms: _173  and  _175
REMARK   70  A    between atoms: _175  and  _176
REMARK   71  A    between atoms: _175  and  _178
REMARK   72  A    between atoms: _178  and  _179
REMARK   73  A    between atoms: _179  and  _180
REMARK   74  A    between atoms: _183  and  _185
REMARK   75  A    between atoms: _185  and  _186
REMARK   76  A    between atoms: _185  and  _188
REMARK   77  A    between atoms: _188  and  _189
REMARK   78  A    between atoms: _194  and  _195
REMARK   79  A    between atoms: _197  and  _199
REMARK   80  A    between atoms: _199  and  _200
REMARK   81  A    between atoms: _199  and  _202
REMARK   82  A    between atoms: _202  and  _203
REMARK   83  A    between atoms: _213  and  _215
REMARK   84  A    between atoms: _215  and  _216
REMARK   85  A    between atoms: _215  and  _218
REMARK   86  A    between atoms: _218  and  _219
REMARK   87  A    between atoms: _219  and  _220
REMARK   88  A    between atoms: _223  and  _225
REMARK   89  A    between atoms: _225  and  _226
REMARK   90  A    between atoms: _225  and  _228
REMARK   91  A    between atoms: _228  and  _229
REMARK   92  A    between atoms: _229  and  _230
REMARK   93  A    between atoms: _230  and  _231
REMARK   94  A    between atoms: _240  and  _242
REMARK   95  A    between atoms: _242  and  _243
REMARK   96  A    between atoms: _242  and  _245
REMARK   97  A    between atoms: _245  and  _246
REMARK   98  A    between atoms: _246  and  _247
REMARK   99  A    between atoms: _250  and  _252
REMARK  100  A    between atoms: _252  and  _253
REMARK  101  A    between atoms: _252  and  _255
REMARK  102  A    between atoms: _255  and  _256
REMARK  103  A    between atoms: _259  and  _261
REMARK  104  A    between atoms: _261  and  _262
REMARK  105  A    between atoms: _261  and  _264
REMARK  106  A    between atoms: _264  and  _265
REMARK  107  A    between atoms: _265  and  _266
REMARK  108  A    between atoms: _271  and  _273
REMARK  109  A    between atoms: _273  and  _274
REMARK  110  A    between atoms: _273  and  _276
REMARK  111  A    between atoms: _276  and  _277
REMARK  112  A    between atoms: _277  and  _278
REMARK  113  A    between atoms: _278  and  _279
REMARK  114  A    between atoms: _279  and  _280
REMARK  115  A    between atoms: _284  and  _286
REMARK  116  A    between atoms: _286  and  _287
REMARK  117  A    between atoms: _290  and  _292
REMARK  118  A    between atoms: _292  and  _293
REMARK  119  A    between atoms: _295  and  _297
REMARK  120  A    between atoms: _297  and  _298
REMARK  121  A    between atoms: _297  and  _300
REMARK  122  A    between atoms: _300  and  _301
REMARK  123  A    between atoms: _306  and  _308
REMARK  124  A    between atoms: _308  and  _309
REMARK  125  A    between atoms: _308  and  _311
REMARK  126  A    between atoms: _311  and  _312
REMARK  127  A    between atoms: _312  and  _313
REMARK  128  A    between atoms: _316  and  _318
REMARK  129  A    between atoms: _318  and  _319
REMARK  130  A    between atoms: _318  and  _321
REMARK  131  A    between atoms: _321  and  _322
REMARK  132  A    between atoms: _322  and  _323
REMARK  133  A    between atoms: _328  and  _330
REMARK  134  A    between atoms: _330  and  _331
REMARK  135  A    between atoms: _330  and  _333
REMARK  136  A    between atoms: _333  and  _334
REMARK  137  A    between atoms: _336  and  _338
REMARK  138  A    between atoms: _338  and  _339
REMARK  139  A    between atoms: _338  and  _341
REMARK  140  A    between atoms: _341  and  _342
REMARK  141  A    between atoms: _348  and  _350
REMARK  142  A    between atoms: _350  and  _351
REMARK  143  A    between atoms: _350  and  _353
REMARK  144  A    between atoms: _356  and  _358
REMARK  145  A    between atoms: _358  and  _359
REMARK  146  A    between atoms: _358  and  _361
REMARK  147  A    between atoms: _361  and  _362
REMARK  148  A    between atoms: _365  and  _367
REMARK  149  A    between atoms: _367  and  _368
REMARK  150  A    between atoms: _367  and  _370
REMARK  151  A    between atoms: _370  and  _371
REMARK  152  A    between atoms: _374  and  _376
REMARK  153  A    between atoms: _376  and  _377
REMARK  154  A    between atoms: _376  and  _379
REMARK  155  A    between atoms: _379  and  _380
REMARK  156  A    between atoms: _383  and  _385
REMARK  157  A    between atoms: _385  and  _386
REMARK  158  A    between atoms: _385  and  _388
REMARK  159  A    between atoms: _388  and  _389
REMARK  160  A    between atoms: _392  and  _394
REMARK  161  A    between atoms: _394  and  _395
REMARK  162  A    between atoms: _394  and  _397
REMARK  163  A    between atoms: _397  and  _398
REMARK  164  A    between atoms: _403  and  _404
REMARK  165  A    between atoms: _406  and  _408
REMARK  166  A    between atoms: _408  and  _409
REMARK  167  A    between atoms: _408  and  _411
REMARK  168  A    between atoms: _411  and  _412
REMARK  169  A    between atoms: _417  and  _418
REMARK  170  A    between atoms: _420  and  _422
REMARK  171  A    between atoms: _422  and  _423
REMARK  172  A    between atoms: _422  and  _425
REMARK  173  A    between atoms: _425  and  _426
REMARK  174  A    between atoms: _429  and  _431
REMARK  175  A    between atoms: _431  and  _432
REMARK  176  A    between atoms: _431  and  _434
REMARK  177  A    between atoms: _434  and  _435
REMARK  178  A    between atoms: _435  and  _436
REMARK  179  A    between atoms: _441  and  _443
REMARK  180  A    between atoms: _443  and  _444
REMARK  181  A    between atoms: _443  and  _446
REMARK  182  A    between atoms: _449  and  _451
REMARK  183  A    between atoms: _451  and  _452
REMARK  184  A    between atoms: _451  and  _454
REMARK  185  A    between atoms: _454  and  _455
REMARK  186  A    between atoms: _458  and  _460
REMARK  187  A    between atoms: _460  and  _461
REMARK  188  A    between atoms: _460  and  _463
REMARK  189  A    between atoms: _463  and  _464
REMARK  190  A    between atoms: _466  and  _468
REMARK  191  A    between atoms: _468  and  _469
REMARK  192  A    between atoms: _471  and  _473
REMARK  193  A    between atoms: _473  and  _474
REMARK  194  A    between atoms: _473  and  _476
REMARK  195  A    between atoms: _476  and  _477
REMARK  196  A    between atoms: _477  and  _772
REMARK  197  A    between atoms: _478  and  _480
REMARK  198  A    between atoms: _480  and  _481
REMARK  199  A    between atoms: _480  and  _483
REMARK  200  A    between atoms: _483  and  _484
REMARK  201  A    between atoms: _489  and  _490
REMARK  202  A    between atoms: _492  and  _494
REMARK  203  A    between atoms: _494  and  _495
REMARK  204  A    between atoms: _494  and  _497
REMARK  205  A    between atoms: _497  and  _498
REMARK  206  A    between atoms: _498  and  _499
REMARK  207  A    between atoms: _504  and  _506
REMARK  208  A    between atoms: _506  and  _507
REMARK  209  A    between atoms: _506  and  _509
REMARK  210  A    between atoms: _509  and  _510
REMARK  211  A    between atoms: _510  and  _511
REMARK  212  A    between atoms: _516  and  _518
REMARK  213  A    between atoms: _518  and  _519
REMARK  214  A    between atoms: _518  and  _521
REMARK  215  A    between atoms: _521  and  _522
REMARK  216  A    between atoms: _527  and  _528
REMARK  217  A    between atoms: _530  and  _532
REMARK  218  A    between atoms: _532  and  _533
REMARK  219  A    between atoms: _536  and  _538
REMARK  220  A    between atoms: _538  and  _539
REMARK  221  A    between atoms: _538  and  _541
REMARK  222  A    between atoms: _541  and  _542
REMARK  223  A    between atoms: _547  and  _548
REMARK  224  A    between atoms: _550  and  _552
REMARK  225  A    between atoms: _552  and  _553
REMARK  226  A    between atoms: _552  and  _555
REMARK  227  A    between atoms: _555  and  _556
REMARK  228  A    between atoms: _561  and  _562
REMARK  229  A    between atoms: _564  and  _566
REMARK  230  A    between atoms: _566  and  _567
REMARK  231  A    between atoms: _566  and  _569
REMARK  232  A    between atoms: _569  and  _570
REMARK  233  A    between atoms: _573  and  _575
REMARK  234  A    between atoms: _575  and  _576
REMARK  235  A    between atoms: _575  and  _578
REMARK  236  A    between atoms: _578  and  _579
REMARK  237  A    between atoms: _589  and  _591
REMARK  238  A    between atoms: _591  and  _592
REMARK  239  A    between atoms: _595  and  _597
REMARK  240  A    between atoms: _597  and  _598
REMARK  241  A    between atoms: _601  and  _603
REMARK  242  A    between atoms: _603  and  _604
REMARK  243  A    between atoms: _603  and  _606
REMARK  244  A    between atoms: _606  and  _607
REMARK  245  A    between atoms: _610  and  _612
REMARK  246  A    between atoms: _612  and  _613
REMARK  247  A    between atoms: _612  and  _615
REMARK  248  A    between atoms: _615  and  _616
REMARK  249  A    between atoms: _619  and  _621
REMARK  250  A    between atoms: _621  and  _622
REMARK  251  A    between atoms: _621  and  _624
REMARK  252  A    between atoms: _624  and  _625
REMARK  253  A    between atoms: _628  and  _630
REMARK  254  A    between atoms: _630  and  _631
REMARK  255  A    between atoms: _630  and  _633
REMARK  256  A    between atoms: _633  and  _634
REMARK  257  A    between atoms: _634  and  _635
REMARK  258  A    between atoms: _635  and  _636
REMARK  259  A    between atoms: _636  and  _637
REMARK  260  A    between atoms: _641  and  _643
REMARK  261  A    between atoms: _643  and  _644
REMARK  262  A    between atoms: _643  and  _646
REMARK  263  A    between atoms: _646  and  _647
REMARK  264  A    between atoms: _652  and  _654
REMARK  265  A    between atoms: _654  and  _655
REMARK  266  A    between atoms: _654  and  _657
REMARK  267  A    between atoms: _657  and  _658
REMARK  268  A    between atoms: _658  and  _659
REMARK  269  A    between atoms: _659  and  _660
REMARK  270  A    between atoms: _660  and  _661
REMARK  271  A    between atoms: _665  and  _667
REMARK  272  A    between atoms: _667  and  _668
REMARK  273  A    between atoms: _667  and  _670
REMARK  274  A    between atoms: _670  and  _671
REMARK  275  A    between atoms: _681  and  _683
REMARK  276  A    between atoms: _683  and  _684
REMARK  277  A    between atoms: _687  and  _689
REMARK  278  A    between atoms: _689  and  _690
REMARK  279  A    between atoms: _692  and  _694
REMARK  280  A    between atoms: _694  and  _695
REMARK  281  A    between atoms: _694  and  _697
REMARK  282  A    between atoms: _697  and  _698
REMARK  283  A    between atoms: _698  and  _699
REMARK  284  A    between atoms: _702  and  _704
REMARK  285  A    between atoms: _704  and  _705
REMARK  286  A    between atoms: _708  and  _710
REMARK  287  A    between atoms: _710  and  _711
REMARK  288  A    between atoms: _710  and  _713
REMARK  289  A    between atoms: _713  and  _714
REMARK  290  A    between atoms: _714  and  _715
REMARK  291  A    between atoms: _715  and  _716
REMARK  292  A    between atoms: _725  and  _727
REMARK  293  A    between atoms: _727  and  _728
REMARK  294  A    between atoms: _727  and  _730
REMARK  295  A    between atoms: _730  and  _731
REMARK  296  A    between atoms: _734  and  _736
REMARK  297  A    between atoms: _736  and  _737
REMARK  298  A    between atoms: _736  and  _739
REMARK  299  A    between atoms: _739  and  _740
REMARK  300  A    between atoms: _745  and  _746
REMARK  301  A    between atoms: _748  and  _750
REMARK  302  A    between atoms: _750  and  _751
REMARK  303  A    between atoms: _750  and  _753
REMARK  304  A    between atoms: _753  and  _754
REMARK  305  A    between atoms: _757  and  _759
REMARK  306  A    between atoms: _759  and  _760
REMARK  307  A    between atoms: _759  and  _762
REMARK  308  A    between atoms: _762  and  _763
REMARK  309  A    between atoms: _766  and  _768
REMARK  310  A    between atoms: _768  and  _769
REMARK  311  A    between atoms: _768  and  _771
REMARK  312  A    between atoms: _771  and  _772
REMARK  313  A    between atoms: _773  and  _775
REMARK  314  A    between atoms: _775  and  _776
REMARK  315  A    between atoms: _775  and  _778
REMARK  316  A    between atoms: _781  and  _783
REMARK  317  A    between atoms: _783  and  _784
REMARK  318  A    between atoms: _783  and  _786
REMARK  319  A    between atoms: _786  and  _787
REMARK  320  A    between atoms: _787  and  _788
REMARK  321  A    between atoms: _791  and  _793
REMARK  322  A    between atoms: _793  and  _794
REMARK  323  A    between atoms: _793  and  _796
REMARK  324  A    between atoms: _796  and  _797
REMARK  325  A    between atoms: _807  and  _809
REMARK  326  A    between atoms: _809  and  _810
REMARK  327  A    between atoms: _809  and  _812
REMARK  328  A    between atoms: _812  and  _813
REMARK  329  A    between atoms: _816  and  _818
REMARK  330  A    between atoms: _818  and  _819
REMARK  331  A    between atoms: _818  and  _821
REMARK  332  A    between atoms: _821  and  _822
REMARK  333  A    between atoms: _822  and  _823
REMARK  334  A    between atoms: _823  and  _824
REMARK  335  A    between atoms: _833  and  _835
REMARK  336  A    between atoms: _835  and  _836
REMARK  337  A    between atoms: _835  and  _838
REMARK  338  A    between atoms: _838  and  _839
REMARK  339  A    between atoms: _844  and  _845
REMARK                            x       y       z     vdW  Elec       q    Type
REMARK                         _______ _______ _______ _____ _____    ______ ____
ROOT
ATOM      1  C   ILE A   2      38.429  49.215   0.592  0.00  0.00    +0.241 C 
ATOM      2  N   SER A   3      39.148  49.784   1.538  0.00  0.00    -0.295 N 
ATOM      3  H   SER A   3      38.726  49.936   2.476  0.00  0.00    +0.150 HD
ATOM      4  O   ILE A   2      38.834  49.079  -0.561  0.00  0.00    -0.273 OA
ENDROOT
BRANCH   2   5
ATOM      5  CA  SER A   3      40.515  50.203   1.298  0.00  0.00    +0.178 C 
BRANCH   5   6
ATOM      6  C   SER A   3      41.312  49.611   2.445  0.00  0.00    +0.243 C 
ATOM      7  O   SER A   3      40.994  49.866   3.614  0.00  0.00    -0.273 OA
ATOM      8  N   VAL A   4      42.328  48.812   2.123  0.00  0.00    -0.297 N 
ATOM      9  H   VAL A   4      42.536  48.624   1.121  0.00  0.00    +0.150 HD
BRANCH   8  10
ATOM     10  CA  VAL A   4      43.151  48.199   3.155  0.00  0.00    +0.149 C 
BRANCH  10  11
ATOM     11  C   VAL A   4      44.597  48.582   2.901  0.00  0.00    +0.241 C 
ATOM     12  N   GLY A   5      45.247  49.061   3.950  0.00  0.00    -0.296 N 
ATOM     13  H   GLY A   5      44.756  49.156   4.862  0.00  0.00    +0.150 HD
ATOM     14  O   VAL A   4      45.110  48.453   1.777  0.00  0.00    -0.273 OA
BRANCH  12  15
ATOM     15  CA  GLY A   5      46.635  49.453   3.837  0.00  0.00    +0.163 C 
BRANCH  15  16
ATOM     16  C   GLY A   5      47.572  48.473   4.504  0.00  0.00    +0.229 C 
ATOM     17  O   GLY A   5      47.243  47.906   5.550  0.00  0.00    -0.286 OA
ENDBRANCH  15  16
ENDBRANCH  12  15
ENDBRANCH  10  11
BRANCH  10  18
ATOM     18  CB  VAL A   4      43.053  46.645   3.141  0.00  0.00    +0.027 C 
ATOM     19  CG2 VAL A   4      43.822  46.071   4.345  0.00  0.00    +0.002 C 
ATOM     20  CG1 VAL A   4      41.592  46.206   3.171  0.00  0.00    +0.002 C 
ENDBRANCH  10  18
ENDBRANCH   8  10
ENDBRANCH   5   6
BRANCH   5  21
ATOM     21  CB  SER A   3      40.637  51.733   1.319  0.00  0.00    +0.166 C 
BRANCH  21  22
ATOM     22  OG  SER A   3      42.000  52.101   1.166  0.00  0.00    -0.380 OA
ATOM     23  H   SER A   3      42.530  51.717   1.909  0.00  0.00    +0.211 HD
ENDBRANCH  21  22
ENDBRANCH   5  21
ENDBRANCH   2   5
BRANCH   1  24
ATOM     24  CA  ILE A   2      37.044  48.748   0.998  0.00  0.00    +0.148 C 
BRANCH  24  27
ATOM     25  C   PHE A   1      34.921  49.687   0.331  0.00  0.00    +0.239 C 
ATOM     26  O   PHE A   1      34.604  49.918   1.502  0.00  0.00    -0.274 OA
ATOM     27  N   ILE A   2      36.080  49.135  -0.013  0.00  0.00    -0.297 N 
ATOM     28  H   ILE A   2      36.298  48.979  -1.018  0.00  0.00    +0.150 HD
BRANCH  25  29
ATOM     29  CA  PHE A   1      33.990  50.042  -0.811  0.00  0.00    +0.149 C 
BRANCH  29  30
ATOM     30  N   PHE A   1      32.690  49.420  -0.558  0.00  0.00    -0.238 NA
ATOM     31  H   PHE A   1      32.235  49.534   0.370  0.00  0.00    +0.142 HD
ENDBRANCH  29  30
BRANCH  29  32
ATOM     32  CB  PHE A   1      33.886  51.566  -0.903  0.00  0.00    +0.053 C 
BRANCH  32  33
ATOM     33  CG  PHE A   1      35.220  52.245  -0.980  0.00  0.00    -0.020 A 
ATOM     34  CD2 PHE A   1      35.829  52.731   0.175  0.00  0.00    -0.004 A 
ATOM     35  CE2 PHE A   1      37.116  53.289   0.135  0.00  0.00    -0.000 A 
ATOM     36  CZ  PHE A   1      37.805  53.367  -1.070  0.00  0.00    -0.000 A 
ATOM     37  CE1 PHE A   1      37.193  52.884  -2.248  0.00  0.00    -0.000 A 
ATOM     38  CD1 PHE A   1      35.914  52.332  -2.191  0.00  0.00    -0.004 A 
ENDBRANCH  32  33
ENDBRANCH  29  32
ENDBRANCH  25  29
ENDBRANCH  24  27
BRANCH  24  39
ATOM     39  CB  ILE A   2      37.101  47.203   1.156  0.00  0.00    +0.027 C 
ATOM     40  CG2 ILE A   2      38.159  46.827   2.192  0.00  0.00    +0.002 C 
BRANCH  39  41
ATOM     41  CG1 ILE A   2      35.729  46.660   1.570  0.00  0.00    +0.002 C 
ATOM     42  CD1 ILE A   2      35.615  45.136   1.434  0.00  0.00    +0.000 C 
ENDBRANCH  39  41
ENDBRANCH  24  39
ENDBRANCH   1  24
TORSDOF 17
REMARK  Name = ../refined-set-2016/1fzo/1fzo_pocket.pdb
REMARK  339 active torsions:
REMARK  status: ('A' for Active; 'I' for Inactive)
REMARK    1  A    between atoms: _1  and  _3
REMARK    2  A    between atoms: _3  and  _4
REMARK    3  A    between atoms: _3  and  _6
REMARK    4  A    between atoms: _6  and  _7
REMARK    5  A    between atoms: _10  and  _12
REMARK    6  A    between atoms: _12  and  _13
REMARK    7  A    between atoms: _12  and  _15
REMARK    8  A    between atoms: _15  and  _16
REMARK    9  A    between atoms: _16  and  _17
REMARK   10  A    between atoms: _17  and  _18
REMARK   11  A    between atoms: _27  and  _29
REMARK   12  A    between atoms: _29  and  _30
REMARK   13  A    between atoms: _29  and  _32
REMARK   14  A    between atoms: _32  and  _33
REMARK   15  A    between atoms: _38  and  _39
REMARK   16  A    between atoms: _41  and  _43
REMARK   17  A    between atoms: _43  and  _44
REMARK   18  A    between atoms: _43  and  _46
REMARK   19  A    between atoms: _46  and  _47
REMARK   20  A    between atoms: _53  and  _55
REMARK   21  A    between atoms: _55  and  _56
REMARK   22  A    between atoms: _55  and  _58
REMARK   23  A    between atoms: _61  and  _63
REMARK   24  A    between atoms: _63  and  _64
REMARK   25  A    between atoms: _63  and  _66
REMARK   26  A    between atoms: _66  and  _67
REMARK   27  A    between atoms: _70  and  _72
REMARK   28  A    between atoms: _72  and  _73
REMARK   29  A    between atoms: _72  and  _75
REMARK   30  A    between atoms: _75  and  _76
REMARK   31  A    between atoms: _82  and  _84
REMARK   32  A    between atoms: _84  and  _85
REMARK   33  A    between atoms: _84  and  _87
REMARK   34  A    between atoms: _87  and  _88
REMARK   35  A    between atoms: _91  and  _93
REMARK   36  A    between atoms: _93  and  _94
REMARK   37  A    between atoms: _93  and  _96
REMARK   38  A    between atoms: _96  and  _97
REMARK   39  A    between atoms: _99  and  _101
REMARK   40  A    between atoms: _101  and  _102
REMARK   41  A    between atoms: _101  and  _104
REMARK   42  A    between atoms: _107  and  _109
REMARK   43  A    between atoms: _109  and  _110
REMARK   44  A    between atoms: _112  and  _114
REMARK   45  A    between atoms: _114  and  _115
REMARK   46  A    between atoms: _114  and  _117
REMARK   47  A    between atoms: _120  and  _122
REMARK   48  A    between atoms: _122  and  _123
REMARK   49  A    between atoms: _122  and  _125
REMARK   50  A    between atoms: _125  and  _126
REMARK   51  A    between atoms: _132  and  _134
REMARK   52  A    between atoms: _134  and  _135
REMARK   53  A    between atoms: _134  and  _137
REMARK   54  A    between atoms: _140  and  _142
REMARK   55  A    between atoms: _142  and  _143
REMARK   56  A    between atoms: _142  and  _145
REMARK   57  A    between atoms: _145  and  _146
REMARK   58  A    between atoms: _151  and  _152
REMARK   59  A    between atoms: _154  and  _156
REMARK   60  A    between atoms: _156  and  _157
REMARK   61  A    between atoms: _156  and  _159
REMARK   62  A    between atoms: _159  and  _160
REMARK   63  A    between atoms: _160  and  _161
REMARK   64  A    between atoms: _163  and  _165
REMARK   65  A    between atoms: _165  and  _166
REMARK   66  A    between atoms: _165  and  _168
REMARK   67  A    between atoms: _168  and  _169
REMARK   68  A    between atoms: _169  and  _170
REMARK   69  A    between atoms: _173  and  _175
REMARK   70  A    between atoms: _175  and  _176
REMARK   71  A    between atoms: _175  and  _178
REMARK   72  A    between atoms: _178  and  _179
REMARK   73  A    between atoms: _179  and  _180
REMARK   74  A    between atoms: _183  and  _185
REMARK   75  A    between atoms: _185  and  _186
REMARK   76  A    between atoms: _185  and  _188
REMARK   77  A    between atoms: _188  and  _189
REMARK   78  A    between atoms: _194  and  _195
REMARK   79  A    between atoms: _197  and  _199
REMARK   80  A    between atoms: _199  and  _200
REMARK   81  A    between atoms: _199  and  _202
REMARK   82  A    between atoms: _202  and  _203
REMARK   83  A    between atoms: _213  and  _215
REMARK   84  A    between atoms: _215  and  _216
REMARK   85  A    between atoms: _215  and  _218
REMARK   86  A    between atoms: _218  and  _219
REMARK   87  A    between atoms: _219  and  _220
REMARK   88  A    between atoms: _223  and  _225
REMARK   89  A    between atoms: _225  and  _226
REMARK   90  A    between atoms: _225  and  _228
REMARK   91  A    between atoms: _228  and  _229
REMARK   92  A    between atoms: _229  and  _230
REMARK   93  A    between atoms: _230  and  _231
REMARK   94  A    between atoms: _240  and  _242
REMARK   95  A    between atoms: _242  and  _243
REMARK   96  A    between atoms: _242  and  _245
REMARK   97  A    between atoms: _245  and  _246
REMARK   98  A    between atoms: _246  and  _247
REMARK   99  A    between atoms: _250  and  _252
REMARK  100  A    between atoms: _252  and  _253
REMARK  101  A    between atoms: _252  and  _255
REMARK  102  A    between atoms: _255  and  _256
REMARK  103  A    between atoms: _259  and  _261
REMARK  104  A    between atoms: _261  and  _262
REMARK  105  A    between atoms: _261  and  _264
REMARK  106  A    between atoms: _264  and  _265
REMARK  107  A    between atoms: _265  and  _266
REMARK  108  A    between atoms: _271  and  _273
REMARK  109  A    between atoms: _273  and  _274
REMARK  110  A    between atoms: _273  and  _276
REMARK  111  A    between atoms: _276  and  _277
REMARK  112  A    between atoms: _277  and  _278
REMARK  113  A    between atoms: _278  and  _279
REMARK  114  A    between atoms: _279  and  _280
REMARK  115  A    between atoms: _284  and  _286
REMARK  116  A    between atoms: _286  and  _287
REMARK  117  A    between atoms: _290  and  _292
REMARK  118  A    between atoms: _292  and  _293
REMARK  119  A    between atoms: _295  and  _297
REMARK  120  A    between atoms: _297  and  _298
REMARK  121  A    between atoms: _297  and  _300
REMARK  122  A    between atoms: _300  and  _301
REMARK  123  A    between atoms: _306  and  _308
REMARK  124  A    between atoms: _308  and  _309
REMARK  125  A    between atoms: _308  and  _311
REMARK  126  A    between atoms: _311  and  _312
REMARK  127  A    between atoms: _312  and  _313
REMARK  128  A    between atoms: _316  and  _318
REMARK  129  A    between atoms: _318  and  _319
REMARK  130  A    between atoms: _318  and  _321
REMARK  131  A    between atoms: _321  and  _322
REMARK  132  A    between atoms: _322  and  _323
REMARK  133  A    between atoms: _328  and  _330
REMARK  134  A    between atoms: _330  and  _331
REMARK  135  A    between atoms: _330  and  _333
REMARK  136  A    between atoms: _333  and  _334
REMARK  137  A    between atoms: _336  and  _338
REMARK  138  A    between atoms: _338  and  _339
REMARK  139  A    between atoms: _338  and  _341
REMARK  140  A    between atoms: _341  and  _342
REMARK  141  A    between atoms: _348  and  _350
REMARK  142  A    between atoms: _350  and  _351
REMARK  143  A    between atoms: _350  and  _353
REMARK  144  A    between atoms: _356  and  _358
REMARK  145  A    between atoms: _358  and  _359
REMARK  146  A    between atoms: _358  and  _361
REMARK  147  A    between atoms: _361  and  _362
REMARK  148  A    between atoms: _365  and  _367
REMARK  149  A    between atoms: _367  and  _368
REMARK  150  A    between atoms: _367  and  _370
REMARK  151  A    between atoms: _370  and  _371
REMARK  152  A    between atoms: _374  and  _376
REMARK  153  A    between atoms: _376  and  _377
REMARK  154  A    between atoms: _376  and  _379
REMARK  155  A    between atoms: _379  and  _380
REMARK  156  A    between atoms: _383  and  _385
REMARK  157  A    between atoms: _385  and  _386
REMARK  158  A    between atoms: _385  and  _388
REMARK  159  A    between atoms: _388  and  _389
REMARK  160  A    between atoms: _392  and  _394
REMARK  161  A    between atoms: _394  and  _395
REMARK  162  A    between atoms: _394  and  _397
REMARK  163  A    between atoms: _397  and  _398
REMARK  164  A    between atoms: _403  and  _404
REMARK  165  A    between atoms: _406  and  _408
REMARK  166  A    between atoms: _408  and  _409
REMARK  167  A    between atoms: _408  and  _411
REMARK  168  A    between atoms: _411  and  _412
REMARK  169  A    between atoms: _417  and  _418
REMARK  170  A    between atoms: _420  and  _422
REMARK  171  A    between atoms: _422  and  _423
REMARK  172  A    between atoms: _422  and  _425
REMARK  173  A    between atoms: _425  and  _426
REMARK  174  A    between atoms: _429  and  _431
REMARK  175  A    between atoms: _431  and  _432
REMARK  176  A    between atoms: _431  and  _434
REMARK  177  A    between atoms: _434  and  _435
REMARK  178  A    between atoms: _435  and  _436
REMARK  179  A    between atoms: _441  and  _443
REMARK  180  A    between atoms: _443  and  _444
REMARK  181  A    between atoms: _443  and  _446
REMARK  182  A    between atoms: _449  and  _451
REMARK  183  A    between atoms: _451  and  _452
REMARK  184  A    between atoms: _451  and  _454
REMARK  185  A    between atoms: _454  and  _455
REMARK  186  A    between atoms: _458  and  _460
REMARK  187  A    between atoms: _460  and  _461
REMARK  188  A    between atoms: _460  and  _463
REMARK  189  A    between atoms: _463  and  _464
REMARK  190  A    between atoms: _466  and  _468
REMARK  191  A    between atoms: _468  and  _469
REMARK  192  A    between atoms: _471  and  _473
REMARK  193  A    between atoms: _473  and  _474
REMARK  194  A    between atoms: _473  and  _476
REMARK  195  A    between atoms: _476  and  _477
REMARK  196  A    between atoms: _477  and  _772
REMARK  197  A    between atoms: _478  and  _480
REMARK  198  A    between atoms: _480  and  _481
REMARK  199  A    between atoms: _480  and  _483
REMARK  200  A    between atoms: _483  and  _484
REMARK  201  A    between atoms: _489  and  _490
REMARK  202  A    between atoms: _492  and  _494
REMARK  203  A    between atoms: _494  and  _495
REMARK  204  A    between atoms: _494  and  _497
REMARK  205  A    between atoms: _497  and  _498
REMARK  206  A    between atoms: _498  and  _499
REMARK  207  A    between atoms: _504  and  _506
REMARK  208  A    between atoms: _506  and  _507
REMARK  209  A    between atoms: _506  and  _509
REMARK  210  A    between atoms: _509  and  _510
REMARK  211  A    between atoms: _510  and  _511
REMARK  212  A    between atoms: _516  and  _518
REMARK  213  A    between atoms: _518  and  _519
REMARK  214  A    between atoms: _518  and  _521
REMARK  215  A    between atoms: _521  and  _522
REMARK  216  A    between atoms: _527  and  _528
REMARK  217  A    between atoms: _530  and  _532
REMARK  218  A    between atoms: _532  and  _533
REMARK  219  A    between atoms: _536  and  _538
REMARK  220  A    between atoms: _538  and  _539
REMARK  221  A    between atoms: _538  and  _541
REMARK  222  A    between atoms: _541  and  _542
REMARK  223  A    between atoms: _547  and  _548
REMARK  224  A    between atoms: _550  and  _552
REMARK  225  A    between atoms: _552  and  _553
REMARK  226  A    between atoms: _552  and  _555
REMARK  227  A    between atoms: _555  and  _556
REMARK  228  A    between atoms: _561  and  _562
REMARK  229  A    between atoms: _564  and  _566
REMARK  230  A    between atoms: _566  and  _567
REMARK  231  A    between atoms: _566  and  _569
REMARK  232  A    between atoms: _569  and  _570
REMARK  233  A    between atoms: _573  and  _575
REMARK  234  A    between atoms: _575  and  _576
REMARK  235  A    between atoms: _575  and  _578
REMARK  236  A    between atoms: _578  and  _579
REMARK  237  A    between atoms: _589  and  _591
REMARK  238  A    between atoms: _591  and  _592
REMARK  239  A    between atoms: _595  and  _597
REMARK  240  A    between atoms: _597  and  _598
REMARK  241  A    between atoms: _601  and  _603
REMARK  242  A    between atoms: _603  and  _604
REMARK  243  A    between atoms: _603  and  _606
REMARK  244  A    between atoms: _606  and  _607
REMARK  245  A    between atoms: _610  and  _612
REMARK  246  A    between atoms: _612  and  _613
REMARK  247  A    between atoms: _612  and  _615
REMARK  248  A    between atoms: _615  and  _616
REMARK  249  A    between atoms: _619  and  _621
REMARK  250  A    between atoms: _621  and  _622
REMARK  251  A    between atoms: _621  and  _624
REMARK  252  A    between atoms: _624  and  _625
REMARK  253  A    between atoms: _628  and  _630
REMARK  254  A    between atoms: _630  and  _631
REMARK  255  A    between atoms: _630  and  _633
REMARK  256  A    between atoms: _633  and  _634
REMARK  257  A    between atoms: _634  and  _635
REMARK  258  A    between atoms: _635  and  _636
REMARK  259  A    between atoms: _636  and  _637
REMARK  260  A    between atoms: _641  and  _643
REMARK  261  A    between atoms: _643  and  _644
REMARK  262  A    between atoms: _643  and  _646
REMARK  263  A    between atoms: _646  and  _647
REMARK  264  A    between atoms: _652  and  _654
REMARK  265  A    between atoms: _654  and  _655
REMARK  266  A    between atoms: _654  and  _657
REMARK  267  A    between atoms: _657  and  _658
REMARK  268  A    between atoms: _658  and  _659
REMARK  269  A    between atoms: _659  and  _660
REMARK  270  A    between atoms: _660  and  _661
REMARK  271  A    between atoms: _665  and  _667
REMARK  272  A    between atoms: _667  and  _668
REMARK  273  A    between atoms: _667  and  _670
REMARK  274  A    between atoms: _670  and  _671
REMARK  275  A    between atoms: _681  and  _683
REMARK  276  A    between atoms: _683  and  _684
REMARK  277  A    between atoms: _687  and  _689
REMARK  278  A    between atoms: _689  and  _690
REMARK  279  A    between atoms: _692  and  _694
REMARK  280  A    between atoms: _694  and  _695
REMARK  281  A    between atoms: _694  and  _697
REMARK  282  A    between atoms: _697  and  _698
REMARK  283  A    between atoms: _698  and  _699
REMARK  284  A    between atoms: _702  and  _704
REMARK  285  A    between atoms: _704  and  _705
REMARK  286  A    between atoms: _708  and  _710
REMARK  287  A    between atoms: _710  and  _711
REMARK  288  A    between atoms: _710  and  _713
REMARK  289  A    between atoms: _713  and  _714
REMARK  290  A    between atoms: _714  and  _715
REMARK  291  A    between atoms: _715  and  _716
REMARK  292  A    between atoms: _725  and  _727
REMARK  293  A    between atoms: _727  and  _728
REMARK  294  A    between atoms: _727  and  _730
REMARK  295  A    between atoms: _730  and  _731
REMARK  296  A    between atoms: _734  and  _736
REMARK  297  A    between atoms: _736  and  _737
REMARK  298  A    between atoms: _736  and  _739
REMARK  299  A    between atoms: _739  and  _740
REMARK  300  A    between atoms: _745  and  _746
REMARK  301  A    between atoms: _748  and  _750
REMARK  302  A    between atoms: _750  and  _751
REMARK  303  A    between atoms: _750  and  _753
REMARK  304  A    between atoms: _753  and  _754
REMARK  305  A    between atoms: _757  and  _759
REMARK  306  A    between atoms: _759  and  _760
REMARK  307  A    between atoms: _759  and  _762
REMARK  308  A    between atoms: _762  and  _763
REMARK  309  A    between atoms: _766  and  _768
REMARK  310  A    between atoms: _768  and  _769
REMARK  311  A    between atoms: _768  and  _771
REMARK  312  A    between atoms: _771  and  _772
REMARK  313  A    between atoms: _773  and  _775
REMARK  314  A    between atoms: _775  and  _776
REMARK  315  A    between atoms: _775  and  _778
REMARK  316  A    between atoms: _781  and  _783
REMARK  317  A    between atoms: _783  and  _784
REMARK  318  A    between atoms: _783  and  _786
REMARK  319  A    between atoms: _786  and  _787
REMARK  320  A    between atoms: _787  and  _788
REMARK  321  A    between atoms: _791  and  _793
REMARK  322  A    between atoms: _793  and  _794
REMARK  323  A    between atoms: _793  and  _796
REMARK  324  A    between atoms: _796  and  _797
REMARK  325  A    between atoms: _807  and  _809
REMARK  326  A    between atoms: _809  and  _810
REMARK  327  A    between atoms: _809  and  _812
REMARK  328  A    between atoms: _812  and  _813
REMARK  329  A    between atoms: _816  and  _818
REMARK  330  A    between atoms: _818  and  _819
REMARK  331  A    between atoms: _818  and  _821
REMARK  332  A    between atoms: _821  and  _822
REMARK  333  A    between atoms: _822  and  _823
REMARK  334  A    between atoms: _823  and  _824
REMARK  335  A    between atoms: _833  and  _835
REMARK  336  A    between atoms: _835  and  _836
REMARK  337  A    between atoms: _835  and  _838
REMARK  338  A    between atoms: _838  and  _839
REMARK  339  A    between atoms: _844  and  _845
REMARK                            x       y       z     vdW  Elec       q    Type
REMARK                         _______ _______ _______ _____ _____    ______ ____
ROOT
ATOM      1  CA  VAL A   1      53.319  48.095   5.445  0.00  0.00    +0.133 C 
ENDROOT
BRANCH   1   2
ATOM      2  CB  VAL A   1      53.802  48.703   6.754  0.00  0.00    +0.023 C 
ATOM      3  CG2 VAL A   1      53.185  50.102   6.910  0.00  0.00    +0.002 C 
ATOM      4  CG1 VAL A   1      55.343  48.792   6.728  0.00  0.00    +0.002 C 
ENDBRANCH   1   2
BRANCH   1   5
ATOM      5  N   VAL A   1      51.911  47.733   5.446  0.00  0.00    -0.239 NA
ATOM      6  H   VAL A   1      51.504  47.257   6.276  0.00  0.00    +0.142 HD
ENDBRANCH   1   5
BRANCH   1   7
ATOM      7  C   VAL A   1      53.876  46.669   5.319  0.00  0.00    +0.224 C 
ATOM      8  O   VAL A   1      53.575  45.816   6.169  0.00  0.00    -0.287 OA
ENDBRANCH   1   7
TORSDOF 3
REMARK  Name = ../refined-set-2016/1fzo/1fzo_pocket.pdb
REMARK  339 active torsions:
REMARK  status: ('A' for Active; 'I' for Inactive)
REMARK    1  A    between atoms: _1  and  _3
REMARK    2  A    between atoms: _3  and  _4
REMARK    3  A    between atoms: _3  and  _6
REMARK    4  A    between atoms: _6  and  _7
REMARK    5  A    between atoms: _10  and  _12
REMARK    6  A    between atoms: _12  and  _13
REMARK    7  A    between atoms: _12  and  _15
REMARK    8  A    between atoms: _15  and  _16
REMARK    9  A    between atoms: _16  and  _17
REMARK   10  A    between atoms: _17  and  _18
REMARK   11  A    between atoms: _27  and  _29
REMARK   12  A    between atoms: _29  and  _30
REMARK   13  A    between atoms: _29  and  _32
REMARK   14  A    between atoms: _32  and  _33
REMARK   15  A    between atoms: _38  and  _39
REMARK   16  A    between atoms: _41  and  _43
REMARK   17  A    between atoms: _43  and  _44
REMARK   18  A    between atoms: _43  and  _46
REMARK   19  A    between atoms: _46  and  _47
REMARK   20  A    between atoms: _53  and  _55
REMARK   21  A    between atoms: _55  and  _56
REMARK   22  A    between atoms: _55  and  _58
REMARK   23  A    between atoms: _61  and  _63
REMARK   24  A    between atoms: _63  and  _64
REMARK   25  A    between atoms: _63  and  _66
REMARK   26  A    between atoms: _66  and  _67
REMARK   27  A    between atoms: _70  and  _72
REMARK   28  A    between atoms: _72  and  _73
REMARK   29  A    between atoms: _72  and  _75
REMARK   30  A    between atoms: _75  and  _76
REMARK   31  A    between atoms: _82  and  _84
REMARK   32  A    between atoms: _84  and  _85
REMARK   33  A    between atoms: _84  and  _87
REMARK   34  A    between atoms: _87  and  _88
REMARK   35  A    between atoms: _91  and  _93
REMARK   36  A    between atoms: _93  and  _94
REMARK   37  A    between atoms: _93  and  _96
REMARK   38  A    between atoms: _96  and  _97
REMARK   39  A    between atoms: _99  and  _101
REMARK   40  A    between atoms: _101  and  _102
REMARK   41  A    between atoms: _101  and  _104
REMARK   42  A    between atoms: _107  and  _109
REMARK   43  A    between atoms: _109  and  _110
REMARK   44  A    between atoms: _112  and  _114
REMARK   45  A    between atoms: _114  and  _115
REMARK   46  A    between atoms: _114  and  _117
REMARK   47  A    between atoms: _120  and  _122
REMARK   48  A    between atoms: _122  and  _123
REMARK   49  A    between atoms: _122  and  _125
REMARK   50  A    between atoms: _125  and  _126
REMARK   51  A    between atoms: _132  and  _134
REMARK   52  A    between atoms: _134  and  _135
REMARK   53  A    between atoms: _134  and  _137
REMARK   54  A    between atoms: _140  and  _142
REMARK   55  A    between atoms: _142  and  _143
REMARK   56  A    between atoms: _142  and  _145
REMARK   57  A    between atoms: _145  and  _146
REMARK   58  A    between atoms: _151  and  _152
REMARK   59  A    between atoms: _154  and  _156
REMARK   60  A    between atoms: _156  and  _157
REMARK   61  A    between atoms: _156  and  _159
REMARK   62  A    between atoms: _159  and  _160
REMARK   63  A    between atoms: _160  and  _161
REMARK   64  A    between atoms: _163  and  _165
REMARK   65  A    between atoms: _165  and  _166
REMARK   66  A    between atoms: _165  and  _168
REMARK   67  A    between atoms: _168  and  _169
REMARK   68  A    between atoms: _169  and  _170
REMARK   69  A    between atoms: _173  and  _175
REMARK   70  A    between atoms: _175  and  _176
REMARK   71  A    between atoms: _175  and  _178
REMARK   72  A    between atoms: _178  and  _179
REMARK   73  A    between atoms: _179  and  _180
REMARK   74  A    between atoms: _183  and  _185
REMARK   75  A    between atoms: _185  and  _186
REMARK   76  A    between atoms: _185  and  _188
REMARK   77  A    between atoms: _188  and  _189
REMARK   78  A    between atoms: _194  and  _195
REMARK   79  A    between atoms: _197  and  _199
REMARK   80  A    between atoms: _199  and  _200
REMARK   81  A    between atoms: _199  and  _202
REMARK   82  A    between atoms: _202  and  _203
REMARK   83  A    between atoms: _213  and  _215
REMARK   84  A    between atoms: _215  and  _216
REMARK   85  A    between atoms: _215  and  _218
REMARK   86  A    between atoms: _218  and  _219
REMARK   87  A    between atoms: _219  and  _220
REMARK   88  A    between atoms: _223  and  _225
REMARK   89  A    between atoms: _225  and  _226
REMARK   90  A    between atoms: _225  and  _228
REMARK   91  A    between atoms: _228  and  _229
REMARK   92  A    between atoms: _229  and  _230
REMARK   93  A    between atoms: _230  and  _231
REMARK   94  A    between atoms: _240  and  _242
REMARK   95  A    between atoms: _242  and  _243
REMARK   96  A    between atoms: _242  and  _245
REMARK   97  A    between atoms: _245  and  _246
REMARK   98  A    between atoms: _246  and  _247
REMARK   99  A    between atoms: _250  and  _252
REMARK  100  A    between atoms: _252  and  _253
REMARK  101  A    between atoms: _252  and  _255
REMARK  102  A    between atoms: _255  and  _256
REMARK  103  A    between atoms: _259  and  _261
REMARK  104  A    between atoms: _261  and  _262
REMARK  105  A    between atoms: _261  and  _264
REMARK  106  A    between atoms: _264  and  _265
REMARK  107  A    between atoms: _265  and  _266
REMARK  108  A    between atoms: _271  and  _273
REMARK  109  A    between atoms: _273  and  _274
REMARK  110  A    between atoms: _273  and  _276
REMARK  111  A    between atoms: _276  and  _277
REMARK  112  A    between atoms: _277  and  _278
REMARK  113  A    between atoms: _278  and  _279
REMARK  114  A    between atoms: _279  and  _280
REMARK  115  A    between atoms: _284  and  _286
REMARK  116  A    between atoms: _286  and  _287
REMARK  117  A    between atoms: _290  and  _292
REMARK  118  A    between atoms: _292  and  _293
REMARK  119  A    between atoms: _295  and  _297
REMARK  120  A    between atoms: _297  and  _298
REMARK  121  A    between atoms: _297  and  _300
REMARK  122  A    between atoms: _300  and  _301
REMARK  123  A    between atoms: _306  and  _308
REMARK  124  A    between atoms: _308  and  _309
REMARK  125  A    between atoms: _308  and  _311
REMARK  126  A    between atoms: _311  and  _312
REMARK  127  A    between atoms: _312  and  _313
REMARK  128  A    between atoms: _316  and  _318
REMARK  129  A    between atoms: _318  and  _319
REMARK  130  A    between atoms: _318  and  _321
REMARK  131  A    between atoms: _321  and  _322
REMARK  132  A    between atoms: _322  and  _323
REMARK  133  A    between atoms: _328  and  _330
REMARK  134  A    between atoms: _330  and  _331
REMARK  135  A    between atoms: _330  and  _333
REMARK  136  A    between atoms: _333  and  _334
REMARK  137  A    between atoms: _336  and  _338
REMARK  138  A    between atoms: _338  and  _339
REMARK  139  A    between atoms: _338  and  _341
REMARK  140  A    between atoms: _341  and  _342
REMARK  141  A    between atoms: _348  and  _350
REMARK  142  A    between atoms: _350  and  _351
REMARK  143  A    between atoms: _350  and  _353
REMARK  144  A    between atoms: _356  and  _358
REMARK  145  A    between atoms: _358  and  _359
REMARK  146  A    between atoms: _358  and  _361
REMARK  147  A    between atoms: _361  and  _362
REMARK  148  A    between atoms: _365  and  _367
REMARK  149  A    between atoms: _367  and  _368
REMARK  150  A    between atoms: _367  and  _370
REMARK  151  A    between atoms: _370  and  _371
REMARK  152  A    between atoms: _374  and  _376
REMARK  153  A    between atoms: _376  and  _377
REMARK  154  A    between atoms: _376  and  _379
REMARK  155  A    between atoms: _379  and  _380
REMARK  156  A    between atoms: _383  and  _385
REMARK  157  A    between atoms: _385  and  _386
REMARK  158  A    between atoms: _385  and  _388
REMARK  159  A    between atoms: _388  and  _389
REMARK  160  A    between atoms: _392  and  _394
REMARK  161  A    between atoms: _394  and  _395
REMARK  162  A    between atoms: _394  and  _397
REMARK  163  A    between atoms: _397  and  _398
REMARK  164  A    between atoms: _403  and  _404
REMARK  165  A    between atoms: _406  and  _408
REMARK  166  A    between atoms: _408  and  _409
REMARK  167  A    between atoms: _408  and  _411
REMARK  168  A    between atoms: _411  and  _412
REMARK  169  A    between atoms: _417  and  _418
REMARK  170  A    between atoms: _420  and  _422
REMARK  171  A    between atoms: _422  and  _423
REMARK  172  A    between atoms: _422  and  _425
REMARK  173  A    between atoms: _425  and  _426
REMARK  174  A    between atoms: _429  and  _431
REMARK  175  A    between atoms: _431  and  _432
REMARK  176  A    between atoms: _431  and  _434
REMARK  177  A    between atoms: _434  and  _435
REMARK  178  A    between atoms: _435  and  _436
REMARK  179  A    between atoms: _441  and  _443
REMARK  180  A    between atoms: _443  and  _444
REMARK  181  A    between atoms: _443  and  _446
REMARK  182  A    between atoms: _449  and  _451
REMARK  183  A    between atoms: _451  and  _452
REMARK  184  A    between atoms: _451  and  _454
REMARK  185  A    between atoms: _454  and  _455
REMARK  186  A    between atoms: _458  and  _460
REMARK  187  A    between atoms: _460  and  _461
REMARK  188  A    between atoms: _460  and  _463
REMARK  189  A    between atoms: _463  and  _464
REMARK  190  A    between atoms: _466  and  _468
REMARK  191  A    between atoms: _468  and  _469
REMARK  192  A    between atoms: _471  and  _473
REMARK  193  A    between atoms: _473  and  _474
REMARK  194  A    between atoms: _473  and  _476
REMARK  195  A    between atoms: _476  and  _477
REMARK  196  A    between atoms: _477  and  _772
REMARK  197  A    between atoms: _478  and  _480
REMARK  198  A    between atoms: _480  and  _481
REMARK  199  A    between atoms: _480  and  _483
REMARK  200  A    between atoms: _483  and  _484
REMARK  201  A    between atoms: _489  and  _490
REMARK  202  A    between atoms: _492  and  _494
REMARK  203  A    between atoms: _494  and  _495
REMARK  204  A    between atoms: _494  and  _497
REMARK  205  A    between atoms: _497  and  _498
REMARK  206  A    between atoms: _498  and  _499
REMARK  207  A    between atoms: _504  and  _506
REMARK  208  A    between atoms: _506  and  _507
REMARK  209  A    between atoms: _506  and  _509
REMARK  210  A    between atoms: _509  and  _510
REMARK  211  A    between atoms: _510  and  _511
REMARK  212  A    between atoms: _516  and  _518
REMARK  213  A    between atoms: _518  and  _519
REMARK  214  A    between atoms: _518  and  _521
REMARK  215  A    between atoms: _521  and  _522
REMARK  216  A    between atoms: _527  and  _528
REMARK  217  A    between atoms: _530  and  _532
REMARK  218  A    between atoms: _532  and  _533
REMARK  219  A    between atoms: _536  and  _538
REMARK  220  A    between atoms: _538  and  _539
REMARK  221  A    between atoms: _538  and  _541
REMARK  222  A    between atoms: _541  and  _542
REMARK  223  A    between atoms: _547  and  _548
REMARK  224  A    between atoms: _550  and  _552
REMARK  225  A    between atoms: _552  and  _553
REMARK  226  A    between atoms: _552  and  _555
REMARK  227  A    between atoms: _555  and  _556
REMARK  228  A    between atoms: _561  and  _562
REMARK  229  A    between atoms: _564  and  _566
REMARK  230  A    between atoms: _566  and  _567
REMARK  231  A    between atoms: _566  and  _569
REMARK  232  A    between atoms: _569  and  _570
REMARK  233  A    between atoms: _573  and  _575
REMARK  234  A    between atoms: _575  and  _576
REMARK  235  A    between atoms: _575  and  _578
REMARK  236  A    between atoms: _578  and  _579
REMARK  237  A    between atoms: _589  and  _591
REMARK  238  A    between atoms: _591  and  _592
REMARK  239  A    between atoms: _595  and  _597
REMARK  240  A    between atoms: _597  and  _598
REMARK  241  A    between atoms: _601  and  _603
REMARK  242  A    between atoms: _603  and  _604
REMARK  243  A    between atoms: _603  and  _606
REMARK  244  A    between atoms: _606  and  _607
REMARK  245  A    between atoms: _610  and  _612
REMARK  246  A    between atoms: _612  and  _613
REMARK  247  A    between atoms: _612  and  _615
REMARK  248  A    between atoms: _615  and  _616
REMARK  249  A    between atoms: _619  and  _621
REMARK  250  A    between atoms: _621  and  _622
REMARK  251  A    between atoms: _621  and  _624
REMARK  252  A    between atoms: _624  and  _625
REMARK  253  A    between atoms: _628  and  _630
REMARK  254  A    between atoms: _630  and  _631
REMARK  255  A    between atoms: _630  and  _633
REMARK  256  A    between atoms: _633  and  _634
REMARK  257  A    between atoms: _634  and  _635
REMARK  258  A    between atoms: _635  and  _636
REMARK  259  A    between atoms: _636  and  _637
REMARK  260  A    between atoms: _641  and  _643
REMARK  261  A    between atoms: _643  and  _644
REMARK  262  A    between atoms: _643  and  _646
REMARK  263  A    between atoms: _646  and  _647
REMARK  264  A    between atoms: _652  and  _654
REMARK  265  A    between atoms: _654  and  _655
REMARK  266  A    between atoms: _654  and  _657
REMARK  267  A    between atoms: _657  and  _658
REMARK  268  A    between atoms: _658  and  _659
REMARK  269  A    between atoms: _659  and  _660
REMARK  270  A    between atoms: _660  and  _661
REMARK  271  A    between atoms: _665  and  _667
REMARK  272  A    between atoms: _667  and  _668
REMARK  273  A    between atoms: _667  and  _670
REMARK  274  A    between atoms: _670  and  _671
REMARK  275  A    between atoms: _681  and  _683
REMARK  276  A    between atoms: _683  and  _684
REMARK  277  A    between atoms: _687  and  _689
REMARK  278  A    between atoms: _689  and  _690
REMARK  279  A    between atoms: _692  and  _694
REMARK  280  A    between atoms: _694  and  _695
REMARK  281  A    between atoms: _694  and  _697
REMARK  282  A    between atoms: _697  and  _698
REMARK  283  A    between atoms: _698  and  _699
REMARK  284  A    between atoms: _702  and  _704
REMARK  285  A    between atoms: _704  and  _705
REMARK  286  A    between atoms: _708  and  _710
REMARK  287  A    between atoms: _710  and  _711
REMARK  288  A    between atoms: _710  and  _713
REMARK  289  A    between atoms: _713  and  _714
REMARK  290  A    between atoms: _714  and  _715
REMARK  291  A    between atoms: _715  and  _716
REMARK  292  A    between atoms: _725  and  _727
REMARK  293  A    between atoms: _727  and  _728
REMARK  294  A    between atoms: _727  and  _730
REMARK  295  A    between atoms: _730  and  _731
REMARK  296  A    between atoms: _734  and  _736
REMARK  297  A    between atoms: _736  and  _737
REMARK  298  A    between atoms: _736  and  _739
REMARK  299  A    between atoms: _739  and  _740
REMARK  300  A    between atoms: _745  and  _746
REMARK  301  A    between atoms: _748  and  _750
REMARK  302  A    between atoms: _750  and  _751
REMARK  303  A    between atoms: _750  and  _753
REMARK  304  A    between atoms: _753  and  _754
REMARK  305  A    between atoms: _757  and  _759
REMARK  306  A    between atoms: _759  and  _760
REMARK  307  A    between atoms: _759  and  _762
REMARK  308  A    between atoms: _762  and  _763
REMARK  309  A    between atoms: _766  and  _768
REMARK  310  A    between atoms: _768  and  _769
REMARK  311  A    between atoms: _768  and  _771
REMARK  312  A    between atoms: _771  and  _772
REMARK  313  A    between atoms: _773  and  _775
REMARK  314  A    between atoms: _775  and  _776
REMARK  315  A    between atoms: _775  and  _778
REMARK  316  A    between atoms: _781  and  _783
REMARK  317  A    between atoms: _783  and  _784
REMARK  318  A    between atoms: _783  and  _786
REMARK  319  A    between atoms: _786  and  _787
REMARK  320  A    between atoms: _787  and  _788
REMARK  321  A    between atoms: _791  and  _793
REMARK  322  A    between atoms: _793  and  _794
REMARK  323  A    between atoms: _793  and  _796
REMARK  324  A    between atoms: _796  and  _797
REMARK  325  A    between atoms: _807  and  _809
REMARK  326  A    between atoms: _809  and  _810
REMARK  327  A    between atoms: _809  and  _812
REMARK  328  A    between atoms: _812  and  _813
REMARK  329  A    between atoms: _816  and  _818
REMARK  330  A    between atoms: _818  and  _819
REMARK  331  A    between atoms: _818  and  _821
REMARK  332  A    between atoms: _821  and  _822
REMARK  333  A    between atoms: _822  and  _823
REMARK  334  A    between atoms: _823  and  _824
REMARK  335  A    between atoms: _833  and  _835
REMARK  336  A    between atoms: _835  and  _836
REMARK  337  A    between atoms: _835  and  _838
REMARK  338  A    between atoms: _838  and  _839
REMARK  339  A    between atoms: _844  and  _845
REMARK                            x       y       z     vdW  Elec       q    Type
REMARK                         _______ _______ _______ _____ _____    ______ ____
ROOT
ATOM      1  CA  PHE A   1      47.890  48.416   9.422  0.00  0.00    +0.149 C 
ENDROOT
BRANCH   1   2
ATOM      2  C   PHE A   1      46.718  49.398   9.501  0.00  0.00    +0.239 C 
ATOM      3  O   PHE A   1      46.523  50.019  10.530  0.00  0.00    -0.274 OA
ATOM      4  N   VAL A   2      45.947  49.537   8.421  0.00  0.00    -0.298 N 
ATOM      5  H   VAL A   2      46.193  49.018   7.554  0.00  0.00    +0.150 HD
BRANCH   4   6
ATOM      6  CA  VAL A   2      44.765  50.399   8.423  0.00  0.00    +0.137 C 
BRANCH   6   7
ATOM      7  CB  VAL A   2      45.042  51.866   7.922  0.00  0.00    +0.026 C 
ATOM      8  CG2 VAL A   2      45.909  52.633   8.925  0.00  0.00    +0.002 C 
ATOM      9  CG1 VAL A   2      45.718  51.824   6.554  0.00  0.00    +0.002 C 
ENDBRANCH   6   7
BRANCH   6  10
ATOM     10  C   VAL A   2      43.710  49.815   7.495  0.00  0.00    +0.227 C 
ATOM     11  O   VAL A   2      44.023  49.086   6.544  0.00  0.00    -0.286 OA
ENDBRANCH   6  10
ENDBRANCH   4   6
ENDBRANCH   1   2
BRANCH   1  12
ATOM     12  N   PHE A   1      47.784  47.418   8.362  0.00  0.00    -0.238 NA
ATOM     13  H   PHE A   1      47.643  47.707   7.373  0.00  0.00    +0.142 HD
ENDBRANCH   1  12
BRANCH   1  14
ATOM     14  CB  PHE A   1      49.233  49.170   9.362  0.00  0.00    +0.053 C 
BRANCH  14  15
ATOM     15  CG  PHE A   1      49.316  50.229   8.294  0.00  0.00    -0.020 A 
ATOM     16  CD2 PHE A   1      49.341  51.579   8.645  0.00  0.00    -0.004 A 
ATOM     17  CE2 PHE A   1      49.436  52.578   7.665  0.00  0.00    -0.000 A 
ATOM     18  CZ  PHE A   1      49.507  52.223   6.309  0.00  0.00    -0.000 A 
ATOM     19  CE1 PHE A   1      49.483  50.869   5.949  0.00  0.00    -0.000 A 
ATOM     20  CD1 PHE A   1      49.387  49.882   6.944  0.00  0.00    -0.004 A 
ENDBRANCH  14  15
ENDBRANCH   1  14
TORSDOF 7
REMARK  Name = ../refined-set-2016/1fzo/1fzo_pocket.pdb
REMARK  339 active torsions:
REMARK  status: ('A' for Active; 'I' for Inactive)
REMARK    1  A    between atoms: _1  and  _3
REMARK    2  A    between atoms: _3  and  _4
REMARK    3  A    between atoms: _3  and  _6
REMARK    4  A    between atoms: _6  and  _7
REMARK    5  A    between atoms: _10  and  _12
REMARK    6  A    between atoms: _12  and  _13
REMARK    7  A    between atoms: _12  and  _15
REMARK    8  A    between atoms: _15  and  _16
REMARK    9  A    between atoms: _16  and  _17
REMARK   10  A    between atoms: _17  and  _18
REMARK   11  A    between atoms: _27  and  _29
REMARK   12  A    between atoms: _29  and  _30
REMARK   13  A    between atoms: _29  and  _32
REMARK   14  A    between atoms: _32  and  _33
REMARK   15  A    between atoms: _38  and  _39
REMARK   16  A    between atoms: _41  and  _43
REMARK   17  A    between atoms: _43  and  _44
REMARK   18  A    between atoms: _43  and  _46
REMARK   19  A    between atoms: _46  and  _47
REMARK   20  A    between atoms: _53  and  _55
REMARK   21  A    between atoms: _55  and  _56
REMARK   22  A    between atoms: _55  and  _58
REMARK   23  A    between atoms: _61  and  _63
REMARK   24  A    between atoms: _63  and  _64
REMARK   25  A    between atoms: _63  and  _66
REMARK   26  A    between atoms: _66  and  _67
REMARK   27  A    between atoms: _70  and  _72
REMARK   28  A    between atoms: _72  and  _73
REMARK   29  A    between atoms: _72  and  _75
REMARK   30  A    between atoms: _75  and  _76
REMARK   31  A    between atoms: _82  and  _84
REMARK   32  A    between atoms: _84  and  _85
REMARK   33  A    between atoms: _84  and  _87
REMARK   34  A    between atoms: _87  and  _88
REMARK   35  A    between atoms: _91  and  _93
REMARK   36  A    between atoms: _93  and  _94
REMARK   37  A    between atoms: _93  and  _96
REMARK   38  A    between atoms: _96  and  _97
REMARK   39  A    between atoms: _99  and  _101
REMARK   40  A    between atoms: _101  and  _102
REMARK   41  A    between atoms: _101  and  _104
REMARK   42  A    between atoms: _107  and  _109
REMARK   43  A    between atoms: _109  and  _110
REMARK   44  A    between atoms: _112  and  _114
REMARK   45  A    between atoms: _114  and  _115
REMARK   46  A    between atoms: _114  and  _117
REMARK   47  A    between atoms: _120  and  _122
REMARK   48  A    between atoms: _122  and  _123
REMARK   49  A    between atoms: _122  and  _125
REMARK   50  A    between atoms: _125  and  _126
REMARK   51  A    between atoms: _132  and  _134
REMARK   52  A    between atoms: _134  and  _135
REMARK   53  A    between atoms: _134  and  _137
REMARK   54  A    between atoms: _140  and  _142
REMARK   55  A    between atoms: _142  and  _143
REMARK   56  A    between atoms: _142  and  _145
REMARK   57  A    between atoms: _145  and  _146
REMARK   58  A    between atoms: _151  and  _152
REMARK   59  A    between atoms: _154  and  _156
REMARK   60  A    between atoms: _156  and  _157
REMARK   61  A    between atoms: _156  and  _159
REMARK   62  A    between atoms: _159  and  _160
REMARK   63  A    between atoms: _160  and  _161
REMARK   64  A    between atoms: _163  and  _165
REMARK   65  A    between atoms: _165  and  _166
REMARK   66  A    between atoms: _165  and  _168
REMARK   67  A    between atoms: _168  and  _169
REMARK   68  A    between atoms: _169  and  _170
REMARK   69  A    between atoms: _173  and  _175
REMARK   70  A    between atoms: _175  and  _176
REMARK   71  A    between atoms: _175  and  _178
REMARK   72  A    between atoms: _178  and  _179
REMARK   73  A    between atoms: _179  and  _180
REMARK   74  A    between atoms: _183  and  _185
REMARK   75  A    between atoms: _185  and  _186
REMARK   76  A    between atoms: _185  and  _188
REMARK   77  A    between atoms: _188  and  _189
REMARK   78  A    between atoms: _194  and  _195
REMARK   79  A    between atoms: _197  and  _199
REMARK   80  A    between atoms: _199  and  _200
REMARK   81  A    between atoms: _199  and  _202
REMARK   82  A    between atoms: _202  and  _203
REMARK   83  A    between atoms: _213  and  _215
REMARK   84  A    between atoms: _215  and  _216
REMARK   85  A    between atoms: _215  and  _218
REMARK   86  A    between atoms: _218  and  _219
REMARK   87  A    between atoms: _219  and  _220
REMARK   88  A    between atoms: _223  and  _225
REMARK   89  A    between atoms: _225  and  _226
REMARK   90  A    between atoms: _225  and  _228
REMARK   91  A    between atoms: _228  and  _229
REMARK   92  A    between atoms: _229  and  _230
REMARK   93  A    between atoms: _230  and  _231
REMARK   94  A    between atoms: _240  and  _242
REMARK   95  A    between atoms: _242  and  _243
REMARK   96  A    between atoms: _242  and  _245
REMARK   97  A    between atoms: _245  and  _246
REMARK   98  A    between atoms: _246  and  _247
REMARK   99  A    between atoms: _250  and  _252
REMARK  100  A    between atoms: _252  and  _253
REMARK  101  A    between atoms: _252  and  _255
REMARK  102  A    between atoms: _255  and  _256
REMARK  103  A    between atoms: _259  and  _261
REMARK  104  A    between atoms: _261  and  _262
REMARK  105  A    between atoms: _261  and  _264
REMARK  106  A    between atoms: _264  and  _265
REMARK  107  A    between atoms: _265  and  _266
REMARK  108  A    between atoms: _271  and  _273
REMARK  109  A    between atoms: _273  and  _274
REMARK  110  A    between atoms: _273  and  _276
REMARK  111  A    between atoms: _276  and  _277
REMARK  112  A    between atoms: _277  and  _278
REMARK  113  A    between atoms: _278  and  _279
REMARK  114  A    between atoms: _279  and  _280
REMARK  115  A    between atoms: _284  and  _286
REMARK  116  A    between atoms: _286  and  _287
REMARK  117  A    between atoms: _290  and  _292
REMARK  118  A    between atoms: _292  and  _293
REMARK  119  A    between atoms: _295  and  _297
REMARK  120  A    between atoms: _297  and  _298
REMARK  121  A    between atoms: _297  and  _300
REMARK  122  A    between atoms: _300  and  _301
REMARK  123  A    between atoms: _306  and  _308
REMARK  124  A    between atoms: _308  and  _309
REMARK  125  A    between atoms: _308  and  _311
REMARK  126  A    between atoms: _311  and  _312
REMARK  127  A    between atoms: _312  and  _313
REMARK  128  A    between atoms: _316  and  _318
REMARK  129  A    between atoms: _318  and  _319
REMARK  130  A    between atoms: _318  and  _321
REMARK  131  A    between atoms: _321  and  _322
REMARK  132  A    between atoms: _322  and  _323
REMARK  133  A    between atoms: _328  and  _330
REMARK  134  A    between atoms: _330  and  _331
REMARK  135  A    between atoms: _330  and  _333
REMARK  136  A    between atoms: _333  and  _334
REMARK  137  A    between atoms: _336  and  _338
REMARK  138  A    between atoms: _338  and  _339
REMARK  139  A    between atoms: _338  and  _341
REMARK  140  A    between atoms: _341  and  _342
REMARK  141  A    between atoms: _348  and  _350
REMARK  142  A    between atoms: _350  and  _351
REMARK  143  A    between atoms: _350  and  _353
REMARK  144  A    between atoms: _356  and  _358
REMARK  145  A    between atoms: _358  and  _359
REMARK  146  A    between atoms: _358  and  _361
REMARK  147  A    between atoms: _361  and  _362
REMARK  148  A    between atoms: _365  and  _367
REMARK  149  A    between atoms: _367  and  _368
REMARK  150  A    between atoms: _367  and  _370
REMARK  151  A    between atoms: _370  and  _371
REMARK  152  A    between atoms: _374  and  _376
REMARK  153  A    between atoms: _376  and  _377
REMARK  154  A    between atoms: _376  and  _379
REMARK  155  A    between atoms: _379  and  _380
REMARK  156  A    between atoms: _383  and  _385
REMARK  157  A    between atoms: _385  and  _386
REMARK  158  A    between atoms: _385  and  _388
REMARK  159  A    between atoms: _388  and  _389
REMARK  160  A    between atoms: _392  and  _394
REMARK  161  A    between atoms: _394  and  _395
REMARK  162  A    between atoms: _394  and  _397
REMARK  163  A    between atoms: _397  and  _398
REMARK  164  A    between atoms: _403  and  _404
REMARK  165  A    between atoms: _406  and  _408
REMARK  166  A    between atoms: _408  and  _409
REMARK  167  A    between atoms: _408  and  _411
REMARK  168  A    between atoms: _411  and  _412
REMARK  169  A    between atoms: _417  and  _418
REMARK  170  A    between atoms: _420  and  _422
REMARK  171  A    between atoms: _422  and  _423
REMARK  172  A    between atoms: _422  and  _425
REMARK  173  A    between atoms: _425  and  _426
REMARK  174  A    between atoms: _429  and  _431
REMARK  175  A    between atoms: _431  and  _432
REMARK  176  A    between atoms: _431  and  _434
REMARK  177  A    between atoms: _434  and  _435
REMARK  178  A    between atoms: _435  and  _436
REMARK  179  A    between atoms: _441  and  _443
REMARK  180  A    between atoms: _443  and  _444
REMARK  181  A    between atoms: _443  and  _446
REMARK  182  A    between atoms: _449  and  _451
REMARK  183  A    between atoms: _451  and  _452
REMARK  184  A    between atoms: _451  and  _454
REMARK  185  A    between atoms: _454  and  _455
REMARK  186  A    between atoms: _458  and  _460
REMARK  187  A    between atoms: _460  and  _461
REMARK  188  A    between atoms: _460  and  _463
REMARK  189  A    between atoms: _463  and  _464
REMARK  190  A    between atoms: _466  and  _468
REMARK  191  A    between atoms: _468  and  _469
REMARK  192  A    between atoms: _471  and  _473
REMARK  193  A    between atoms: _473  and  _474
REMARK  194  A    between atoms: _473  and  _476
REMARK  195  A    between atoms: _476  and  _477
REMARK  196  A    between atoms: _477  and  _772
REMARK  197  A    between atoms: _478  and  _480
REMARK  198  A    between atoms: _480  and  _481
REMARK  199  A    between atoms: _480  and  _483
REMARK  200  A    between atoms: _483  and  _484
REMARK  201  A    between atoms: _489  and  _490
REMARK  202  A    between atoms: _492  and  _494
REMARK  203  A    between atoms: _494  and  _495
REMARK  204  A    between atoms: _494  and  _497
REMARK  205  A    between atoms: _497  and  _498
REMARK  206  A    between atoms: _498  and  _499
REMARK  207  A    between atoms: _504  and  _506
REMARK  208  A    between atoms: _506  and  _507
REMARK  209  A    between atoms: _506  and  _509
REMARK  210  A    between atoms: _509  and  _510
REMARK  211  A    between atoms: _510  and  _511
REMARK  212  A    between atoms: _516  and  _518
REMARK  213  A    between atoms: _518  and  _519
REMARK  214  A    between atoms: _518  and  _521
REMARK  215  A    between atoms: _521  and  _522
REMARK  216  A    between atoms: _527  and  _528
REMARK  217  A    between atoms: _530  and  _532
REMARK  218  A    between atoms: _532  and  _533
REMARK  219  A    between atoms: _536  and  _538
REMARK  220  A    between atoms: _538  and  _539
REMARK  221  A    between atoms: _538  and  _541
REMARK  222  A    between atoms: _541  and  _542
REMARK  223  A    between atoms: _547  and  _548
REMARK  224  A    between atoms: _550  and  _552
REMARK  225  A    between atoms: _552  and  _553
REMARK  226  A    between atoms: _552  and  _555
REMARK  227  A    between atoms: _555  and  _556
REMARK  228  A    between atoms: _561  and  _562
REMARK  229  A    between atoms: _564  and  _566
REMARK  230  A    between atoms: _566  and  _567
REMARK  231  A    between atoms: _566  and  _569
REMARK  232  A    between atoms: _569  and  _570
REMARK  233  A    between atoms: _573  and  _575
REMARK  234  A    between atoms: _575  and  _576
REMARK  235  A    between atoms: _575  and  _578
REMARK  236  A    between atoms: _578  and  _579
REMARK  237  A    between atoms: _589  and  _591
REMARK  238  A    between atoms: _591  and  _592
REMARK  239  A    between atoms: _595  and  _597
REMARK  240  A    between atoms: _597  and  _598
REMARK  241  A    between atoms: _601  and  _603
REMARK  242  A    between atoms: _603  and  _604
REMARK  243  A    between atoms: _603  and  _606
REMARK  244  A    between atoms: _606  and  _607
REMARK  245  A    between atoms: _610  and  _612
REMARK  246  A    between atoms: _612  and  _613
REMARK  247  A    between atoms: _612  and  _615
REMARK  248  A    between atoms: _615  and  _616
REMARK  249  A    between atoms: _619  and  _621
REMARK  250  A    between atoms: _621  and  _622
REMARK  251  A    between atoms: _621  and  _624
REMARK  252  A    between atoms: _624  and  _625
REMARK  253  A    between atoms: _628  and  _630
REMARK  254  A    between atoms: _630  and  _631
REMARK  255  A    between atoms: _630  and  _633
REMARK  256  A    between atoms: _633  and  _634
REMARK  257  A    between atoms: _634  and  _635
REMARK  258  A    between atoms: _635  and  _636
REMARK  259  A    between atoms: _636  and  _637
REMARK  260  A    between atoms: _641  and  _643
REMARK  261  A    between atoms: _643  and  _644
REMARK  262  A    between atoms: _643  and  _646
REMARK  263  A    between atoms: _646  and  _647
REMARK  264  A    between atoms: _652  and  _654
REMARK  265  A    between atoms: _654  and  _655
REMARK  266  A    between atoms: _654  and  _657
REMARK  267  A    between atoms: _657  and  _658
REMARK  268  A    between atoms: _658  and  _659
REMARK  269  A    between atoms: _659  and  _660
REMARK  270  A    between atoms: _660  and  _661
REMARK  271  A    between atoms: _665  and  _667
REMARK  272  A    between atoms: _667  and  _668
REMARK  273  A    between atoms: _667  and  _670
REMARK  274  A    between atoms: _670  and  _671
REMARK  275  A    between atoms: _681  and  _683
REMARK  276  A    between atoms: _683  and  _684
REMARK  277  A    between atoms: _687  and  _689
REMARK  278  A    between atoms: _689  and  _690
REMARK  279  A    between atoms: _692  and  _694
REMARK  280  A    between atoms: _694  and  _695
REMARK  281  A    between atoms: _694  and  _697
REMARK  282  A    between atoms: _697  and  _698
REMARK  283  A    between atoms: _698  and  _699
REMARK  284  A    between atoms: _702  and  _704
REMARK  285  A    between atoms: _704  and  _705
REMARK  286  A    between atoms: _708  and  _710
REMARK  287  A    between atoms: _710  and  _711
REMARK  288  A    between atoms: _710  and  _713
REMARK  289  A    between atoms: _713  and  _714
REMARK  290  A    between atoms: _714  and  _715
REMARK  291  A    between atoms: _715  and  _716
REMARK  292  A    between atoms: _725  and  _727
REMARK  293  A    between atoms: _727  and  _728
REMARK  294  A    between atoms: _727  and  _730
REMARK  295  A    between atoms: _730  and  _731
REMARK  296  A    between atoms: _734  and  _736
REMARK  297  A    between atoms: _736  and  _737
REMARK  298  A    between atoms: _736  and  _739
REMARK  299  A    between atoms: _739  and  _740
REMARK  300  A    between atoms: _745  and  _746
REMARK  301  A    between atoms: _748  and  _750
REMARK  302  A    between atoms: _750  and  _751
REMARK  303  A    between atoms: _750  and  _753
REMARK  304  A    between atoms: _753  and  _754
REMARK  305  A    between atoms: _757  and  _759
REMARK  306  A    between atoms: _759  and  _760
REMARK  307  A    between atoms: _759  and  _762
REMARK  308  A    between atoms: _762  and  _763
REMARK  309  A    between atoms: _766  and  _768
REMARK  310  A    between atoms: _768  and  _769
REMARK  311  A    between atoms: _768  and  _771
REMARK  312  A    between atoms: _771  and  _772
REMARK  313  A    between atoms: _773  and  _775
REMARK  314  A    between atoms: _775  and  _776
REMARK  315  A    between atoms: _775  and  _778
REMARK  316  A    between atoms: _781  and  _783
REMARK  317  A    between atoms: _783  and  _784
REMARK  318  A    between atoms: _783  and  _786
REMARK  319  A    between atoms: _786  and  _787
REMARK  320  A    between atoms: _787  and  _788
REMARK  321  A    between atoms: _791  and  _793
REMARK  322  A    between atoms: _793  and  _794
REMARK  323  A    between atoms: _793  and  _796
REMARK  324  A    between atoms: _796  and  _797
REMARK  325  A    between atoms: _807  and  _809
REMARK  326  A    between atoms: _809  and  _810
REMARK  327  A    between atoms: _809  and  _812
REMARK  328  A    between atoms: _812  and  _813
REMARK  329  A    between atoms: _816  and  _818
REMARK  330  A    between atoms: _818  and  _819
REMARK  331  A    between atoms: _818  and  _821
REMARK  332  A    between atoms: _821  and  _822
REMARK  333  A    between atoms: _822  and  _823
REMARK  334  A    between atoms: _823  and  _824
REMARK  335  A    between atoms: _833  and  _835
REMARK  336  A    between atoms: _835  and  _836
REMARK  337  A    between atoms: _835  and  _838
REMARK  338  A    between atoms: _838  and  _839
REMARK  339  A    between atoms: _844  and  _845
REMARK                            x       y       z     vdW  Elec       q    Type
REMARK                         _______ _______ _______ _____ _____    ______ ____
ROOT
ATOM      1  CG  TYR A   1      41.139  55.319   7.481  0.00  0.00    -0.020 A 
ATOM      2  CD2 TYR A   1      42.447  55.163   7.920  0.00  0.00    -0.001 A 
ATOM      3  CE2 TYR A   1      43.454  54.803   7.052  0.00  0.00    +0.036 A 
ATOM      4  CZ  TYR A   1      43.152  54.591   5.714  0.00  0.00    +0.134 A 
ATOM      5  CE1 TYR A   1      41.850  54.727   5.243  0.00  0.00    +0.036 A 
ATOM      6  CD1 TYR A   1      40.853  55.091   6.133  0.00  0.00    -0.001 A 
ENDROOT
BRANCH   4   7
ATOM      7  OH  TYR A   1      44.166  54.299   4.849  0.00  0.00    -0.506 OA
ATOM      8  HH  TYR A   1      43.981  53.434   4.405  0.00  0.00    +0.292 HD
ENDBRANCH   4   7
BRANCH   1   9
ATOM      9  CB  TYR A   1      40.072  55.781   8.418  0.00  0.00    +0.051 C 
BRANCH   9  10
ATOM     10  CA  TYR A   1      39.177  54.666   8.920  0.00  0.00    +0.137 C 
BRANCH  10  11
ATOM     11  N   TYR A   1      37.877  55.222   9.235  0.00  0.00    -0.239 NA
ATOM     12  H   TYR A   1      37.761  56.254   9.282  0.00  0.00    +0.142 HD
ENDBRANCH  10  11
BRANCH  10  13
ATOM     13  C   TYR A   1      39.686  54.129  10.263  0.00  0.00    +0.224 C 
ATOM     14  O   TYR A   1      39.679  54.865  11.251  0.00  0.00    -0.287 OA
ENDBRANCH  10  13
ENDBRANCH   9  10
ENDBRANCH   1   9
TORSDOF 5
REMARK  Name = ../refined-set-2016/1fzo/1fzo_pocket.pdb
REMARK  339 active torsions:
REMARK  status: ('A' for Active; 'I' for Inactive)
REMARK    1  A    between atoms: _1  and  _3
REMARK    2  A    between atoms: _3  and  _4
REMARK    3  A    between atoms: _3  and  _6
REMARK    4  A    between atoms: _6  and  _7
REMARK    5  A    between atoms: _10  and  _12
REMARK    6  A    between atoms: _12  and  _13
REMARK    7  A    between atoms: _12  and  _15
REMARK    8  A    between atoms: _15  and  _16
REMARK    9  A    between atoms: _16  and  _17
REMARK   10  A    between atoms: _17  and  _18
REMARK   11  A    between atoms: _27  and  _29
REMARK   12  A    between atoms: _29  and  _30
REMARK   13  A    between atoms: _29  and  _32
REMARK   14  A    between atoms: _32  and  _33
REMARK   15  A    between atoms: _38  and  _39
REMARK   16  A    between atoms: _41  and  _43
REMARK   17  A    between atoms: _43  and  _44
REMARK   18  A    between atoms: _43  and  _46
REMARK   19  A    between atoms: _46  and  _47
REMARK   20  A    between atoms: _53  and  _55
REMARK   21  A    between atoms: _55  and  _56
REMARK   22  A    between atoms: _55  and  _58
REMARK   23  A    between atoms: _61  and  _63
REMARK   24  A    between atoms: _63  and  _64
REMARK   25  A    between atoms: _63  and  _66
REMARK   26  A    between atoms: _66  and  _67
REMARK   27  A    between atoms: _70  and  _72
REMARK   28  A    between atoms: _72  and  _73
REMARK   29  A    between atoms: _72  and  _75
REMARK   30  A    between atoms: _75  and  _76
REMARK   31  A    between atoms: _82  and  _84
REMARK   32  A    between atoms: _84  and  _85
REMARK   33  A    between atoms: _84  and  _87
REMARK   34  A    between atoms: _87  and  _88
REMARK   35  A    between atoms: _91  and  _93
REMARK   36  A    between atoms: _93  and  _94
REMARK   37  A    between atoms: _93  and  _96
REMARK   38  A    between atoms: _96  and  _97
REMARK   39  A    between atoms: _99  and  _101
REMARK   40  A    between atoms: _101  and  _102
REMARK   41  A    between atoms: _101  and  _104
REMARK   42  A    between atoms: _107  and  _109
REMARK   43  A    between atoms: _109  and  _110
REMARK   44  A    between atoms: _112  and  _114
REMARK   45  A    between atoms: _114  and  _115
REMARK   46  A    between atoms: _114  and  _117
REMARK   47  A    between atoms: _120  and  _122
REMARK   48  A    between atoms: _122  and  _123
REMARK   49  A    between atoms: _122  and  _125
REMARK   50  A    between atoms: _125  and  _126
REMARK   51  A    between atoms: _132  and  _134
REMARK   52  A    between atoms: _134  and  _135
REMARK   53  A    between atoms: _134  and  _137
REMARK   54  A    between atoms: _140  and  _142
REMARK   55  A    between atoms: _142  and  _143
REMARK   56  A    between atoms: _142  and  _145
REMARK   57  A    between atoms: _145  and  _146
REMARK   58  A    between atoms: _151  and  _152
REMARK   59  A    between atoms: _154  and  _156
REMARK   60  A    between atoms: _156  and  _157
REMARK   61  A    between atoms: _156  and  _159
REMARK   62  A    between atoms: _159  and  _160
REMARK   63  A    between atoms: _160  and  _161
REMARK   64  A    between atoms: _163  and  _165
REMARK   65  A    between atoms: _165  and  _166
REMARK   66  A    between atoms: _165  and  _168
REMARK   67  A    between atoms: _168  and  _169
REMARK   68  A    between atoms: _169  and  _170
REMARK   69  A    between atoms: _173  and  _175
REMARK   70  A    between atoms: _175  and  _176
REMARK   71  A    between atoms: _175  and  _178
REMARK   72  A    between atoms: _178  and  _179
REMARK   73  A    between atoms: _179  and  _180
REMARK   74  A    between atoms: _183  and  _185
REMARK   75  A    between atoms: _185  and  _186
REMARK   76  A    between atoms: _185  and  _188
REMARK   77  A    between atoms: _188  and  _189
REMARK   78  A    between atoms: _194  and  _195
REMARK   79  A    between atoms: _197  and  _199
REMARK   80  A    between atoms: _199  and  _200
REMARK   81  A    between atoms: _199  and  _202
REMARK   82  A    between atoms: _202  and  _203
REMARK   83  A    between atoms: _213  and  _215
REMARK   84  A    between atoms: _215  and  _216
REMARK   85  A    between atoms: _215  and  _218
REMARK   86  A    between atoms: _218  and  _219
REMARK   87  A    between atoms: _219  and  _220
REMARK   88  A    between atoms: _223  and  _225
REMARK   89  A    between atoms: _225  and  _226
REMARK   90  A    between atoms: _225  and  _228
REMARK   91  A    between atoms: _228  and  _229
REMARK   92  A    between atoms: _229  and  _230
REMARK   93  A    between atoms: _230  and  _231
REMARK   94  A    between atoms: _240  and  _242
REMARK   95  A    between atoms: _242  and  _243
REMARK   96  A    between atoms: _242  and  _245
REMARK   97  A    between atoms: _245  and  _246
REMARK   98  A    between atoms: _246  and  _247
REMARK   99  A    between atoms: _250  and  _252
REMARK  100  A    between atoms: _252  and  _253
REMARK  101  A    between atoms: _252  and  _255
REMARK  102  A    between atoms: _255  and  _256
REMARK  103  A    between atoms: _259  and  _261
REMARK  104  A    between atoms: _261  and  _262
REMARK  105  A    between atoms: _261  and  _264
REMARK  106  A    between atoms: _264  and  _265
REMARK  107  A    between atoms: _265  and  _266
REMARK  108  A    between atoms: _271  and  _273
REMARK  109  A    between atoms: _273  and  _274
REMARK  110  A    between atoms: _273  and  _276
REMARK  111  A    between atoms: _276  and  _277
REMARK  112  A    between atoms: _277  and  _278
REMARK  113  A    between atoms: _278  and  _279
REMARK  114  A    between atoms: _279  and  _280
REMARK  115  A    between atoms: _284  and  _286
REMARK  116  A    between atoms: _286  and  _287
REMARK  117  A    between atoms: _290  and  _292
REMARK  118  A    between atoms: _292  and  _293
REMARK  119  A    between atoms: _295  and  _297
REMARK  120  A    between atoms: _297  and  _298
REMARK  121  A    between atoms: _297  and  _300
REMARK  122  A    between atoms: _300  and  _301
REMARK  123  A    between atoms: _306  and  _308
REMARK  124  A    between atoms: _308  and  _309
REMARK  125  A    between atoms: _308  and  _311
REMARK  126  A    between atoms: _311  and  _312
REMARK  127  A    between atoms: _312  and  _313
REMARK  128  A    between atoms: _316  and  _318
REMARK  129  A    between atoms: _318  and  _319
REMARK  130  A    between atoms: _318  and  _321
REMARK  131  A    between atoms: _321  and  _322
REMARK  132  A    between atoms: _322  and  _323
REMARK  133  A    between atoms: _328  and  _330
REMARK  134  A    between atoms: _330  and  _331
REMARK  135  A    between atoms: _330  and  _333
REMARK  136  A    between atoms: _333  and  _334
REMARK  137  A    between atoms: _336  and  _338
REMARK  138  A    between atoms: _338  and  _339
REMARK  139  A    between atoms: _338  and  _341
REMARK  140  A    between atoms: _341  and  _342
REMARK  141  A    between atoms: _348  and  _350
REMARK  142  A    between atoms: _350  and  _351
REMARK  143  A    between atoms: _350  and  _353
REMARK  144  A    between atoms: _356  and  _358
REMARK  145  A    between atoms: _358  and  _359
REMARK  146  A    between atoms: _358  and  _361
REMARK  147  A    between atoms: _361  and  _362
REMARK  148  A    between atoms: _365  and  _367
REMARK  149  A    between atoms: _367  and  _368
REMARK  150  A    between atoms: _367  and  _370
REMARK  151  A    between atoms: _370  and  _371
REMARK  152  A    between atoms: _374  and  _376
REMARK  153  A    between atoms: _376  and  _377
REMARK  154  A    between atoms: _376  and  _379
REMARK  155  A    between atoms: _379  and  _380
REMARK  156  A    between atoms: _383  and  _385
REMARK  157  A    between atoms: _385  and  _386
REMARK  158  A    between atoms: _385  and  _388
REMARK  159  A    between atoms: _388  and  _389
REMARK  160  A    between atoms: _392  and  _394
REMARK  161  A    between atoms: _394  and  _395
REMARK  162  A    between atoms: _394  and  _397
REMARK  163  A    between atoms: _397  and  _398
REMARK  164  A    between atoms: _403  and  _404
REMARK  165  A    between atoms: _406  and  _408
REMARK  166  A    between atoms: _408  and  _409
REMARK  167  A    between atoms: _408  and  _411
REMARK  168  A    between atoms: _411  and  _412
REMARK  169  A    between atoms: _417  and  _418
REMARK  170  A    between atoms: _420  and  _422
REMARK  171  A    between atoms: _422  and  _423
REMARK  172  A    between atoms: _422  and  _425
REMARK  173  A    between atoms: _425  and  _426
REMARK  174  A    between atoms: _429  and  _431
REMARK  175  A    between atoms: _431  and  _432
REMARK  176  A    between atoms: _431  and  _434
REMARK  177  A    between atoms: _434  and  _435
REMARK  178  A    between atoms: _435  and  _436
REMARK  179  A    between atoms: _441  and  _443
REMARK  180  A    between atoms: _443  and  _444
REMARK  181  A    between atoms: _443  and  _446
REMARK  182  A    between atoms: _449  and  _451
REMARK  183  A    between atoms: _451  and  _452
REMARK  184  A    between atoms: _451  and  _454
REMARK  185  A    between atoms: _454  and  _455
REMARK  186  A    between atoms: _458  and  _460
REMARK  187  A    between atoms: _460  and  _461
REMARK  188  A    between atoms: _460  and  _463
REMARK  189  A    between atoms: _463  and  _464
REMARK  190  A    between atoms: _466  and  _468
REMARK  191  A    between atoms: _468  and  _469
REMARK  192  A    between atoms: _471  and  _473
REMARK  193  A    between atoms: _473  and  _474
REMARK  194  A    between atoms: _473  and  _476
REMARK  195  A    between atoms: _476  and  _477
REMARK  196  A    between atoms: _477  and  _772
REMARK  197  A    between atoms: _478  and  _480
REMARK  198  A    between atoms: _480  and  _481
REMARK  199  A    between atoms: _480  and  _483
REMARK  200  A    between atoms: _483  and  _484
REMARK  201  A    between atoms: _489  and  _490
REMARK  202  A    between atoms: _492  and  _494
REMARK  203  A    between atoms: _494  and  _495
REMARK  204  A    between atoms: _494  and  _497
REMARK  205  A    between atoms: _497  and  _498
REMARK  206  A    between atoms: _498  and  _499
REMARK  207  A    between atoms: _504  and  _506
REMARK  208  A    between atoms: _506  and  _507
REMARK  209  A    between atoms: _506  and  _509
REMARK  210  A    between atoms: _509  and  _510
REMARK  211  A    between atoms: _510  and  _511
REMARK  212  A    between atoms: _516  and  _518
REMARK  213  A    between atoms: _518  and  _519
REMARK  214  A    between atoms: _518  and  _521
REMARK  215  A    between atoms: _521  and  _522
REMARK  216  A    between atoms: _527  and  _528
REMARK  217  A    between atoms: _530  and  _532
REMARK  218  A    between atoms: _532  and  _533
REMARK  219  A    between atoms: _536  and  _538
REMARK  220  A    between atoms: _538  and  _539
REMARK  221  A    between atoms: _538  and  _541
REMARK  222  A    between atoms: _541  and  _542
REMARK  223  A    between atoms: _547  and  _548
REMARK  224  A    between atoms: _550  and  _552
REMARK  225  A    between atoms: _552  and  _553
REMARK  226  A    between atoms: _552  and  _555
REMARK  227  A    between atoms: _555  and  _556
REMARK  228  A    between atoms: _561  and  _562
REMARK  229  A    between atoms: _564  and  _566
REMARK  230  A    between atoms: _566  and  _567
REMARK  231  A    between atoms: _566  and  _569
REMARK  232  A    between atoms: _569  and  _570
REMARK  233  A    between atoms: _573  and  _575
REMARK  234  A    between atoms: _575  and  _576
REMARK  235  A    between atoms: _575  and  _578
REMARK  236  A    between atoms: _578  and  _579
REMARK  237  A    between atoms: _589  and  _591
REMARK  238  A    between atoms: _591  and  _592
REMARK  239  A    between atoms: _595  and  _597
REMARK  240  A    between atoms: _597  and  _598
REMARK  241  A    between atoms: _601  and  _603
REMARK  242  A    between atoms: _603  and  _604
REMARK  243  A    between atoms: _603  and  _606
REMARK  244  A    between atoms: _606  and  _607
REMARK  245  A    between atoms: _610  and  _612
REMARK  246  A    between atoms: _612  and  _613
REMARK  247  A    between atoms: _612  and  _615
REMARK  248  A    between atoms: _615  and  _616
REMARK  249  A    between atoms: _619  and  _621
REMARK  250  A    between atoms: _621  and  _622
REMARK  251  A    between atoms: _621  and  _624
REMARK  252  A    between atoms: _624  and  _625
REMARK  253  A    between atoms: _628  and  _630
REMARK  254  A    between atoms: _630  and  _631
REMARK  255  A    between atoms: _630  and  _633
REMARK  256  A    between atoms: _633  and  _634
REMARK  257  A    between atoms: _634  and  _635
REMARK  258  A    between atoms: _635  and  _636
REMARK  259  A    between atoms: _636  and  _637
REMARK  260  A    between atoms: _641  and  _643
REMARK  261  A    between atoms: _643  and  _644
REMARK  262  A    between atoms: _643  and  _646
REMARK  263  A    between atoms: _646  and  _647
REMARK  264  A    between atoms: _652  and  _654
REMARK  265  A    between atoms: _654  and  _655
REMARK  266  A    between atoms: _654  and  _657
REMARK  267  A    between atoms: _657  and  _658
REMARK  268  A    between atoms: _658  and  _659
REMARK  269  A    between atoms: _659  and  _660
REMARK  270  A    between atoms: _660  and  _661
REMARK  271  A    between atoms: _665  and  _667
REMARK  272  A    between atoms: _667  and  _668
REMARK  273  A    between atoms: _667  and  _670
REMARK  274  A    between atoms: _670  and  _671
REMARK  275  A    between atoms: _681  and  _683
REMARK  276  A    between atoms: _683  and  _684
REMARK  277  A    between atoms: _687  and  _689
REMARK  278  A    between atoms: _689  and  _690
REMARK  279  A    between atoms: _692  and  _694
REMARK  280  A    between atoms: _694  and  _695
REMARK  281  A    between atoms: _694  and  _697
REMARK  282  A    between atoms: _697  and  _698
REMARK  283  A    between atoms: _698  and  _699
REMARK  284  A    between atoms: _702  and  _704
REMARK  285  A    between atoms: _704  and  _705
REMARK  286  A    between atoms: _708  and  _710
REMARK  287  A    between atoms: _710  and  _711
REMARK  288  A    between atoms: _710  and  _713
REMARK  289  A    between atoms: _713  and  _714
REMARK  290  A    between atoms: _714  and  _715
REMARK  291  A    between atoms: _715  and  _716
REMARK  292  A    between atoms: _725  and  _727
REMARK  293  A    between atoms: _727  and  _728
REMARK  294  A    between atoms: _727  and  _730
REMARK  295  A    between atoms: _730  and  _731
REMARK  296  A    between atoms: _734  and  _736
REMARK  297  A    between atoms: _736  and  _737
REMARK  298  A    between atoms: _736  and  _739
REMARK  299  A    between atoms: _739  and  _740
REMARK  300  A    between atoms: _745  and  _746
REMARK  301  A    between atoms: _748  and  _750
REMARK  302  A    between atoms: _750  and  _751
REMARK  303  A    between atoms: _750  and  _753
REMARK  304  A    between atoms: _753  and  _754
REMARK  305  A    between atoms: _757  and  _759
REMARK  306  A    between atoms: _759  and  _760
REMARK  307  A    between atoms: _759  and  _762
REMARK  308  A    between atoms: _762  and  _763
REMARK  309  A    between atoms: _766  and  _768
REMARK  310  A    between atoms: _768  and  _769
REMARK  311  A    between atoms: _768  and  _771
REMARK  312  A    between atoms: _771  and  _772
REMARK  313  A    between atoms: _773  and  _775
REMARK  314  A    between atoms: _775  and  _776
REMARK  315  A    between atoms: _775  and  _778
REMARK  316  A    between atoms: _781  and  _783
REMARK  317  A    between atoms: _783  and  _784
REMARK  318  A    between atoms: _783  and  _786
REMARK  319  A    between atoms: _786  and  _787
REMARK  320  A    between atoms: _787  and  _788
REMARK  321  A    between atoms: _791  and  _793
REMARK  322  A    between atoms: _793  and  _794
REMARK  323  A    between atoms: _793  and  _796
REMARK  324  A    between atoms: _796  and  _797
REMARK  325  A    between atoms: _807  and  _809
REMARK  326  A    between atoms: _809  and  _810
REMARK  327  A    between atoms: _809  and  _812
REMARK  328  A    between atoms: _812  and  _813
REMARK  329  A    between atoms: _816  and  _818
REMARK  330  A    between atoms: _818  and  _819
REMARK  331  A    between atoms: _818  and  _821
REMARK  332  A    between atoms: _821  and  _822
REMARK  333  A    between atoms: _822  and  _823
REMARK  334  A    between atoms: _823  and  _824
REMARK  335  A    between atoms: _833  and  _835
REMARK  336  A    between atoms: _835  and  _836
REMARK  337  A    between atoms: _835  and  _838
REMARK  338  A    between atoms: _838  and  _839
REMARK  339  A    between atoms: _844  and  _845
REMARK                            x       y       z     vdW  Elec       q    Type
REMARK                         _______ _______ _______ _____ _____    ______ ____
ROOT
ATOM      1  CA  MET A   1      49.142  53.057  14.710  0.00  0.00    +0.134 C 
ENDROOT
BRANCH   1   2
ATOM      2  N   MET A   1      49.882  51.941  15.302  0.00  0.00    -0.239 NA
ATOM      3  H   MET A   1      49.531  50.968  15.193  0.00  0.00    +0.142 HD
ENDBRANCH   1   2
BRANCH   1   4
ATOM      4  C   MET A   1      48.436  53.901  15.794  0.00  0.00    +0.224 C 
ATOM      5  O   MET A   1      47.812  54.933  15.498  0.00  0.00    -0.287 OA
ENDBRANCH   1   4
BRANCH   1   6
ATOM      6  CB  MET A   1      48.140  52.554  13.663  0.00  0.00    +0.037 C 
BRANCH   6   7
ATOM      7  CG  MET A   1      48.825  52.238  12.318  0.00  0.00    +0.059 C 
BRANCH   7   8
ATOM      8  SD  MET A   1      49.734  53.658  11.666  0.00  0.00    -0.139 S 
ATOM      9  CE  MET A   1      48.407  54.621  11.139  0.00  0.00    +0.069 C 
ENDBRANCH   7   8
ENDBRANCH   6   7
ENDBRANCH   1   6
TORSDOF 5
REMARK  Name = ../refined-set-2016/1fzo/1fzo_pocket.pdb
REMARK  339 active torsions:
REMARK  status: ('A' for Active; 'I' for Inactive)
REMARK    1  A    between atoms: _1  and  _3
REMARK    2  A    between atoms: _3  and  _4
REMARK    3  A    between atoms: _3  and  _6
REMARK    4  A    between atoms: _6  and  _7
REMARK    5  A    between atoms: _10  and  _12
REMARK    6  A    between atoms: _12  and  _13
REMARK    7  A    between atoms: _12  and  _15
REMARK    8  A    between atoms: _15  and  _16
REMARK    9  A    between atoms: _16  and  _17
REMARK   10  A    between atoms: _17  and  _18
REMARK   11  A    between atoms: _27  and  _29
REMARK   12  A    between atoms: _29  and  _30
REMARK   13  A    between atoms: _29  and  _32
REMARK   14  A    between atoms: _32  and  _33
REMARK   15  A    between atoms: _38  and  _39
REMARK   16  A    between atoms: _41  and  _43
REMARK   17  A    between atoms: _43  and  _44
REMARK   18  A    between atoms: _43  and  _46
REMARK   19  A    between atoms: _46  and  _47
REMARK   20  A    between atoms: _53  and  _55
REMARK   21  A    between atoms: _55  and  _56
REMARK   22  A    between atoms: _55  and  _58
REMARK   23  A    between atoms: _61  and  _63
REMARK   24  A    between atoms: _63  and  _64
REMARK   25  A    between atoms: _63  and  _66
REMARK   26  A    between atoms: _66  and  _67
REMARK   27  A    between atoms: _70  and  _72
REMARK   28  A    between atoms: _72  and  _73
REMARK   29  A    between atoms: _72  and  _75
REMARK   30  A    between atoms: _75  and  _76
REMARK   31  A    between atoms: _82  and  _84
REMARK   32  A    between atoms: _84  and  _85
REMARK   33  A    between atoms: _84  and  _87
REMARK   34  A    between atoms: _87  and  _88
REMARK   35  A    between atoms: _91  and  _93
REMARK   36  A    between atoms: _93  and  _94
REMARK   37  A    between atoms: _93  and  _96
REMARK   38  A    between atoms: _96  and  _97
REMARK   39  A    between atoms: _99  and  _101
REMARK   40  A    between atoms: _101  and  _102
REMARK   41  A    between atoms: _101  and  _104
REMARK   42  A    between atoms: _107  and  _109
REMARK   43  A    between atoms: _109  and  _110
REMARK   44  A    between atoms: _112  and  _114
REMARK   45  A    between atoms: _114  and  _115
REMARK   46  A    between atoms: _114  and  _117
REMARK   47  A    between atoms: _120  and  _122
REMARK   48  A    between atoms: _122  and  _123
REMARK   49  A    between atoms: _122  and  _125
REMARK   50  A    between atoms: _125  and  _126
REMARK   51  A    between atoms: _132  and  _134
REMARK   52  A    between atoms: _134  and  _135
REMARK   53  A    between atoms: _134  and  _137
REMARK   54  A    between atoms: _140  and  _142
REMARK   55  A    between atoms: _142  and  _143
REMARK   56  A    between atoms: _142  and  _145
REMARK   57  A    between atoms: _145  and  _146
REMARK   58  A    between atoms: _151  and  _152
REMARK   59  A    between atoms: _154  and  _156
REMARK   60  A    between atoms: _156  and  _157
REMARK   61  A    between atoms: _156  and  _159
REMARK   62  A    between atoms: _159  and  _160
REMARK   63  A    between atoms: _160  and  _161
REMARK   64  A    between atoms: _163  and  _165
REMARK   65  A    between atoms: _165  and  _166
REMARK   66  A    between atoms: _165  and  _168
REMARK   67  A    between atoms: _168  and  _169
REMARK   68  A    between atoms: _169  and  _170
REMARK   69  A    between atoms: _173  and  _175
REMARK   70  A    between atoms: _175  and  _176
REMARK   71  A    between atoms: _175  and  _178
REMARK   72  A    between atoms: _178  and  _179
REMARK   73  A    between atoms: _179  and  _180
REMARK   74  A    between atoms: _183  and  _185
REMARK   75  A    between atoms: _185  and  _186
REMARK   76  A    between atoms: _185  and  _188
REMARK   77  A    between atoms: _188  and  _189
REMARK   78  A    between atoms: _194  and  _195
REMARK   79  A    between atoms: _197  and  _199
REMARK   80  A    between atoms: _199  and  _200
REMARK   81  A    between atoms: _199  and  _202
REMARK   82  A    between atoms: _202  and  _203
REMARK   83  A    between atoms: _213  and  _215
REMARK   84  A    between atoms: _215  and  _216
REMARK   85  A    between atoms: _215  and  _218
REMARK   86  A    between atoms: _218  and  _219
REMARK   87  A    between atoms: _219  and  _220
REMARK   88  A    between atoms: _223  and  _225
REMARK   89  A    between atoms: _225  and  _226
REMARK   90  A    between atoms: _225  and  _228
REMARK   91  A    between atoms: _228  and  _229
REMARK   92  A    between atoms: _229  and  _230
REMARK   93  A    between atoms: _230  and  _231
REMARK   94  A    between atoms: _240  and  _242
REMARK   95  A    between atoms: _242  and  _243
REMARK   96  A    between atoms: _242  and  _245
REMARK   97  A    between atoms: _245  and  _246
REMARK   98  A    between atoms: _246  and  _247
REMARK   99  A    between atoms: _250  and  _252
REMARK  100  A    between atoms: _252  and  _253
REMARK  101  A    between atoms: _252  and  _255
REMARK  102  A    between atoms: _255  and  _256
REMARK  103  A    between atoms: _259  and  _261
REMARK  104  A    between atoms: _261  and  _262
REMARK  105  A    between atoms: _261  and  _264
REMARK  106  A    between atoms: _264  and  _265
REMARK  107  A    between atoms: _265  and  _266
REMARK  108  A    between atoms: _271  and  _273
REMARK  109  A    between atoms: _273  and  _274
REMARK  110  A    between atoms: _273  and  _276
REMARK  111  A    between atoms: _276  and  _277
REMARK  112  A    between atoms: _277  and  _278
REMARK  113  A    between atoms: _278  and  _279
REMARK  114  A    between atoms: _279  and  _280
REMARK  115  A    between atoms: _284  and  _286
REMARK  116  A    between atoms: _286  and  _287
REMARK  117  A    between atoms: _290  and  _292
REMARK  118  A    between atoms: _292  and  _293
REMARK  119  A    between atoms: _295  and  _297
REMARK  120  A    between atoms: _297  and  _298
REMARK  121  A    between atoms: _297  and  _300
REMARK  122  A    between atoms: _300  and  _301
REMARK  123  A    between atoms: _306  and  _308
REMARK  124  A    between atoms: _308  and  _309
REMARK  125  A    between atoms: _308  and  _311
REMARK  126  A    between atoms: _311  and  _312
REMARK  127  A    between atoms: _312  and  _313
REMARK  128  A    between atoms: _316  and  _318
REMARK  129  A    between atoms: _318  and  _319
REMARK  130  A    between atoms: _318  and  _321
REMARK  131  A    between atoms: _321  and  _322
REMARK  132  A    between atoms: _322  and  _323
REMARK  133  A    between atoms: _328  and  _330
REMARK  134  A    between atoms: _330  and  _331
REMARK  135  A    between atoms: _330  and  _333
REMARK  136  A    between atoms: _333  and  _334
REMARK  137  A    between atoms: _336  and  _338
REMARK  138  A    between atoms: _338  and  _339
REMARK  139  A    between atoms: _338  and  _341
REMARK  140  A    between atoms: _341  and  _342
REMARK  141  A    between atoms: _348  and  _350
REMARK  142  A    between atoms: _350  and  _351
REMARK  143  A    between atoms: _350  and  _353
REMARK  144  A    between atoms: _356  and  _358
REMARK  145  A    between atoms: _358  and  _359
REMARK  146  A    between atoms: _358  and  _361
REMARK  147  A    between atoms: _361  and  _362
REMARK  148  A    between atoms: _365  and  _367
REMARK  149  A    between atoms: _367  and  _368
REMARK  150  A    between atoms: _367  and  _370
REMARK  151  A    between atoms: _370  and  _371
REMARK  152  A    between atoms: _374  and  _376
REMARK  153  A    between atoms: _376  and  _377
REMARK  154  A    between atoms: _376  and  _379
REMARK  155  A    between atoms: _379  and  _380
REMARK  156  A    between atoms: _383  and  _385
REMARK  157  A    between atoms: _385  and  _386
REMARK  158  A    between atoms: _385  and  _388
REMARK  159  A    between atoms: _388  and  _389
REMARK  160  A    between atoms: _392  and  _394
REMARK  161  A    between atoms: _394  and  _395
REMARK  162  A    between atoms: _394  and  _397
REMARK  163  A    between atoms: _397  and  _398
REMARK  164  A    between atoms: _403  and  _404
REMARK  165  A    between atoms: _406  and  _408
REMARK  166  A    between atoms: _408  and  _409
REMARK  167  A    between atoms: _408  and  _411
REMARK  168  A    between atoms: _411  and  _412
REMARK  169  A    between atoms: _417  and  _418
REMARK  170  A    between atoms: _420  and  _422
REMARK  171  A    between atoms: _422  and  _423
REMARK  172  A    between atoms: _422  and  _425
REMARK  173  A    between atoms: _425  and  _426
REMARK  174  A    between atoms: _429  and  _431
REMARK  175  A    between atoms: _431  and  _432
REMARK  176  A    between atoms: _431  and  _434
REMARK  177  A    between atoms: _434  and  _435
REMARK  178  A    between atoms: _435  and  _436
REMARK  179  A    between atoms: _441  and  _443
REMARK  180  A    between atoms: _443  and  _444
REMARK  181  A    between atoms: _443  and  _446
REMARK  182  A    between atoms: _449  and  _451
REMARK  183  A    between atoms: _451  and  _452
REMARK  184  A    between atoms: _451  and  _454
REMARK  185  A    between atoms: _454  and  _455
REMARK  186  A    between atoms: _458  and  _460
REMARK  187  A    between atoms: _460  and  _461
REMARK  188  A    between atoms: _460  and  _463
REMARK  189  A    between atoms: _463  and  _464
REMARK  190  A    between atoms: _466  and  _468
REMARK  191  A    between atoms: _468  and  _469
REMARK  192  A    between atoms: _471  and  _473
REMARK  193  A    between atoms: _473  and  _474
REMARK  194  A    between atoms: _473  and  _476
REMARK  195  A    between atoms: _476  and  _477
REMARK  196  A    between atoms: _477  and  _772
REMARK  197  A    between atoms: _478  and  _480
REMARK  198  A    between atoms: _480  and  _481
REMARK  199  A    between atoms: _480  and  _483
REMARK  200  A    between atoms: _483  and  _484
REMARK  201  A    between atoms: _489  and  _490
REMARK  202  A    between atoms: _492  and  _494
REMARK  203  A    between atoms: _494  and  _495
REMARK  204  A    between atoms: _494  and  _497
REMARK  205  A    between atoms: _497  and  _498
REMARK  206  A    between atoms: _498  and  _499
REMARK  207  A    between atoms: _504  and  _506
REMARK  208  A    between atoms: _506  and  _507
REMARK  209  A    between atoms: _506  and  _509
REMARK  210  A    between atoms: _509  and  _510
REMARK  211  A    between atoms: _510  and  _511
REMARK  212  A    between atoms: _516  and  _518
REMARK  213  A    between atoms: _518  and  _519
REMARK  214  A    between atoms: _518  and  _521
REMARK  215  A    between atoms: _521  and  _522
REMARK  216  A    between atoms: _527  and  _528
REMARK  217  A    between atoms: _530  and  _532
REMARK  218  A    between atoms: _532  and  _533
REMARK  219  A    between atoms: _536  and  _538
REMARK  220  A    between atoms: _538  and  _539
REMARK  221  A    between atoms: _538  and  _541
REMARK  222  A    between atoms: _541  and  _542
REMARK  223  A    between atoms: _547  and  _548
REMARK  224  A    between atoms: _550  and  _552
REMARK  225  A    between atoms: _552  and  _553
REMARK  226  A    between atoms: _552  and  _555
REMARK  227  A    between atoms: _555  and  _556
REMARK  228  A    between atoms: _561  and  _562
REMARK  229  A    between atoms: _564  and  _566
REMARK  230  A    between atoms: _566  and  _567
REMARK  231  A    between atoms: _566  and  _569
REMARK  232  A    between atoms: _569  and  _570
REMARK  233  A    between atoms: _573  and  _575
REMARK  234  A    between atoms: _575  and  _576
REMARK  235  A    between atoms: _575  and  _578
REMARK  236  A    between atoms: _578  and  _579
REMARK  237  A    between atoms: _589  and  _591
REMARK  238  A    between atoms: _591  and  _592
REMARK  239  A    between atoms: _595  and  _597
REMARK  240  A    between atoms: _597  and  _598
REMARK  241  A    between atoms: _601  and  _603
REMARK  242  A    between atoms: _603  and  _604
REMARK  243  A    between atoms: _603  and  _606
REMARK  244  A    between atoms: _606  and  _607
REMARK  245  A    between atoms: _610  and  _612
REMARK  246  A    between atoms: _612  and  _613
REMARK  247  A    between atoms: _612  and  _615
REMARK  248  A    between atoms: _615  and  _616
REMARK  249  A    between atoms: _619  and  _621
REMARK  250  A    between atoms: _621  and  _622
REMARK  251  A    between atoms: _621  and  _624
REMARK  252  A    between atoms: _624  and  _625
REMARK  253  A    between atoms: _628  and  _630
REMARK  254  A    between atoms: _630  and  _631
REMARK  255  A    between atoms: _630  and  _633
REMARK  256  A    between atoms: _633  and  _634
REMARK  257  A    between atoms: _634  and  _635
REMARK  258  A    between atoms: _635  and  _636
REMARK  259  A    between atoms: _636  and  _637
REMARK  260  A    between atoms: _641  and  _643
REMARK  261  A    between atoms: _643  and  _644
REMARK  262  A    between atoms: _643  and  _646
REMARK  263  A    between atoms: _646  and  _647
REMARK  264  A    between atoms: _652  and  _654
REMARK  265  A    between atoms: _654  and  _655
REMARK  266  A    between atoms: _654  and  _657
REMARK  267  A    between atoms: _657  and  _658
REMARK  268  A    between atoms: _658  and  _659
REMARK  269  A    between atoms: _659  and  _660
REMARK  270  A    between atoms: _660  and  _661
REMARK  271  A    between atoms: _665  and  _667
REMARK  272  A    between atoms: _667  and  _668
REMARK  273  A    between atoms: _667  and  _670
REMARK  274  A    between atoms: _670  and  _671
REMARK  275  A    between atoms: _681  and  _683
REMARK  276  A    between atoms: _683  and  _684
REMARK  277  A    between atoms: _687  and  _689
REMARK  278  A    between atoms: _689  and  _690
REMARK  279  A    between atoms: _692  and  _694
REMARK  280  A    between atoms: _694  and  _695
REMARK  281  A    between atoms: _694  and  _697
REMARK  282  A    between atoms: _697  and  _698
REMARK  283  A    between atoms: _698  and  _699
REMARK  284  A    between atoms: _702  and  _704
REMARK  285  A    between atoms: _704  and  _705
REMARK  286  A    between atoms: _708  and  _710
REMARK  287  A    between atoms: _710  and  _711
REMARK  288  A    between atoms: _710  and  _713
REMARK  289  A    between atoms: _713  and  _714
REMARK  290  A    between atoms: _714  and  _715
REMARK  291  A    between atoms: _715  and  _716
REMARK  292  A    between atoms: _725  and  _727
REMARK  293  A    between atoms: _727  and  _728
REMARK  294  A    between atoms: _727  and  _730
REMARK  295  A    between atoms: _730  and  _731
REMARK  296  A    between atoms: _734  and  _736
REMARK  297  A    between atoms: _736  and  _737
REMARK  298  A    between atoms: _736  and  _739
REMARK  299  A    between atoms: _739  and  _740
REMARK  300  A    between atoms: _745  and  _746
REMARK  301  A    between atoms: _748  and  _750
REMARK  302  A    between atoms: _750  and  _751
REMARK  303  A    between atoms: _750  and  _753
REMARK  304  A    between atoms: _753  and  _754
REMARK  305  A    between atoms: _757  and  _759
REMARK  306  A    between atoms: _759  and  _760
REMARK  307  A    between atoms: _759  and  _762
REMARK  308  A    between atoms: _762  and  _763
REMARK  309  A    between atoms: _766  and  _768
REMARK  310  A    between atoms: _768  and  _769
REMARK  311  A    between atoms: _768  and  _771
REMARK  312  A    between atoms: _771  and  _772
REMARK  313  A    between atoms: _773  and  _775
REMARK  314  A    between atoms: _775  and  _776
REMARK  315  A    between atoms: _775  and  _778
REMARK  316  A    between atoms: _781  and  _783
REMARK  317  A    between atoms: _783  and  _784
REMARK  318  A    between atoms: _783  and  _786
REMARK  319  A    between atoms: _786  and  _787
REMARK  320  A    between atoms: _787  and  _788
REMARK  321  A    between atoms: _791  and  _793
REMARK  322  A    between atoms: _793  and  _794
REMARK  323  A    between atoms: _793  and  _796
REMARK  324  A    between atoms: _796  and  _797
REMARK  325  A    between atoms: _807  and  _809
REMARK  326  A    between atoms: _809  and  _810
REMARK  327  A    between atoms: _809  and  _812
REMARK  328  A    between atoms: _812  and  _813
REMARK  329  A    between atoms: _816  and  _818
REMARK  330  A    between atoms: _818  and  _819
REMARK  331  A    between atoms: _818  and  _821
REMARK  332  A    between atoms: _821  and  _822
REMARK  333  A    between atoms: _822  and  _823
REMARK  334  A    between atoms: _823  and  _824
REMARK  335  A    between atoms: _833  and  _835
REMARK  336  A    between atoms: _835  and  _836
REMARK  337  A    between atoms: _835  and  _838
REMARK  338  A    between atoms: _838  and  _839
REMARK  339  A    between atoms: _844  and  _845
REMARK                            x       y       z     vdW  Elec       q    Type
REMARK                         _______ _______ _______ _____ _____    ______ ____
ROOT
ATOM      1  CA  GLU A   1      48.938  58.781  15.208  0.00  0.00    +0.134 C 
ENDROOT
BRANCH   1   2
ATOM      2  N   GLU A   1      49.415  57.681  16.048  0.00  0.00    -0.239 NA
ATOM      3  H   GLU A   1      48.956  56.750  15.987  0.00  0.00    +0.142 HD
ENDBRANCH   1   2
BRANCH   1   4
ATOM      4  C   GLU A   1      47.852  59.523  15.990  0.00  0.00    +0.224 C 
ATOM      5  O   GLU A   1      47.112  58.916  16.754  0.00  0.00    -0.287 OA
ENDBRANCH   1   4
BRANCH   1   6
ATOM      6  CB  GLU A   1      48.357  58.250  13.889  0.00  0.00    +0.037 C 
BRANCH   6   7
ATOM      7  CG  GLU A   1      49.382  57.586  12.970  0.00  0.00    +0.116 C 
BRANCH   7   8
ATOM      8  CD  GLU A   1      50.559  58.486  12.653  0.00  0.00    +0.365 C 
ATOM      9  OE2 GLU A   1      50.407  59.723  12.735  0.00  0.00    -0.246 OA
ATOM     10  OE1 GLU A   1      51.643  57.965  12.305  0.00  0.00    -0.246 OA
ENDBRANCH   7   8
ENDBRANCH   6   7
ENDBRANCH   1   6
TORSDOF 5
REMARK  Name = ../refined-set-2016/1fzo/1fzo_pocket.pdb
REMARK  339 active torsions:
REMARK  status: ('A' for Active; 'I' for Inactive)
REMARK    1  A    between atoms: _1  and  _3
REMARK    2  A    between atoms: _3  and  _4
REMARK    3  A    between atoms: _3  and  _6
REMARK    4  A    between atoms: _6  and  _7
REMARK    5  A    between atoms: _10  and  _12
REMARK    6  A    between atoms: _12  and  _13
REMARK    7  A    between atoms: _12  and  _15
REMARK    8  A    between atoms: _15  and  _16
REMARK    9  A    between atoms: _16  and  _17
REMARK   10  A    between atoms: _17  and  _18
REMARK   11  A    between atoms: _27  and  _29
REMARK   12  A    between atoms: _29  and  _30
REMARK   13  A    between atoms: _29  and  _32
REMARK   14  A    between atoms: _32  and  _33
REMARK   15  A    between atoms: _38  and  _39
REMARK   16  A    between atoms: _41  and  _43
REMARK   17  A    between atoms: _43  and  _44
REMARK   18  A    between atoms: _43  and  _46
REMARK   19  A    between atoms: _46  and  _47
REMARK   20  A    between atoms: _53  and  _55
REMARK   21  A    between atoms: _55  and  _56
REMARK   22  A    between atoms: _55  and  _58
REMARK   23  A    between atoms: _61  and  _63
REMARK   24  A    between atoms: _63  and  _64
REMARK   25  A    between atoms: _63  and  _66
REMARK   26  A    between atoms: _66  and  _67
REMARK   27  A    between atoms: _70  and  _72
REMARK   28  A    between atoms: _72  and  _73
REMARK   29  A    between atoms: _72  and  _75
REMARK   30  A    between atoms: _75  and  _76
REMARK   31  A    between atoms: _82  and  _84
REMARK   32  A    between atoms: _84  and  _85
REMARK   33  A    between atoms: _84  and  _87
REMARK   34  A    between atoms: _87  and  _88
REMARK   35  A    between atoms: _91  and  _93
REMARK   36  A    between atoms: _93  and  _94
REMARK   37  A    between atoms: _93  and  _96
REMARK   38  A    between atoms: _96  and  _97
REMARK   39  A    between atoms: _99  and  _101
REMARK   40  A    between atoms: _101  and  _102
REMARK   41  A    between atoms: _101  and  _104
REMARK   42  A    between atoms: _107  and  _109
REMARK   43  A    between atoms: _109  and  _110
REMARK   44  A    between atoms: _112  and  _114
REMARK   45  A    between atoms: _114  and  _115
REMARK   46  A    between atoms: _114  and  _117
REMARK   47  A    between atoms: _120  and  _122
REMARK   48  A    between atoms: _122  and  _123
REMARK   49  A    between atoms: _122  and  _125
REMARK   50  A    between atoms: _125  and  _126
REMARK   51  A    between atoms: _132  and  _134
REMARK   52  A    between atoms: _134  and  _135
REMARK   53  A    between atoms: _134  and  _137
REMARK   54  A    between atoms: _140  and  _142
REMARK   55  A    between atoms: _142  and  _143
REMARK   56  A    between atoms: _142  and  _145
REMARK   57  A    between atoms: _145  and  _146
REMARK   58  A    between atoms: _151  and  _152
REMARK   59  A    between atoms: _154  and  _156
REMARK   60  A    between atoms: _156  and  _157
REMARK   61  A    between atoms: _156  and  _159
REMARK   62  A    between atoms: _159  and  _160
REMARK   63  A    between atoms: _160  and  _161
REMARK   64  A    between atoms: _163  and  _165
REMARK   65  A    between atoms: _165  and  _166
REMARK   66  A    between atoms: _165  and  _168
REMARK   67  A    between atoms: _168  and  _169
REMARK   68  A    between atoms: _169  and  _170
REMARK   69  A    between atoms: _173  and  _175
REMARK   70  A    between atoms: _175  and  _176
REMARK   71  A    between atoms: _175  and  _178
REMARK   72  A    between atoms: _178  and  _179
REMARK   73  A    between atoms: _179  and  _180
REMARK   74  A    between atoms: _183  and  _185
REMARK   75  A    between atoms: _185  and  _186
REMARK   76  A    between atoms: _185  and  _188
REMARK   77  A    between atoms: _188  and  _189
REMARK   78  A    between atoms: _194  and  _195
REMARK   79  A    between atoms: _197  and  _199
REMARK   80  A    between atoms: _199  and  _200
REMARK   81  A    between atoms: _199  and  _202
REMARK   82  A    between atoms: _202  and  _203
REMARK   83  A    between atoms: _213  and  _215
REMARK   84  A    between atoms: _215  and  _216
REMARK   85  A    between atoms: _215  and  _218
REMARK   86  A    between atoms: _218  and  _219
REMARK   87  A    between atoms: _219  and  _220
REMARK   88  A    between atoms: _223  and  _225
REMARK   89  A    between atoms: _225  and  _226
REMARK   90  A    between atoms: _225  and  _228
REMARK   91  A    between atoms: _228  and  _229
REMARK   92  A    between atoms: _229  and  _230
REMARK   93  A    between atoms: _230  and  _231
REMARK   94  A    between atoms: _240  and  _242
REMARK   95  A    between atoms: _242  and  _243
REMARK   96  A    between atoms: _242  and  _245
REMARK   97  A    between atoms: _245  and  _246
REMARK   98  A    between atoms: _246  and  _247
REMARK   99  A    between atoms: _250  and  _252
REMARK  100  A    between atoms: _252  and  _253
REMARK  101  A    between atoms: _252  and  _255
REMARK  102  A    between atoms: _255  and  _256
REMARK  103  A    between atoms: _259  and  _261
REMARK  104  A    between atoms: _261  and  _262
REMARK  105  A    between atoms: _261  and  _264
REMARK  106  A    between atoms: _264  and  _265
REMARK  107  A    between atoms: _265  and  _266
REMARK  108  A    between atoms: _271  and  _273
REMARK  109  A    between atoms: _273  and  _274
REMARK  110  A    between atoms: _273  and  _276
REMARK  111  A    between atoms: _276  and  _277
REMARK  112  A    between atoms: _277  and  _278
REMARK  113  A    between atoms: _278  and  _279
REMARK  114  A    between atoms: _279  and  _280
REMARK  115  A    between atoms: _284  and  _286
REMARK  116  A    between atoms: _286  and  _287
REMARK  117  A    between atoms: _290  and  _292
REMARK  118  A    between atoms: _292  and  _293
REMARK  119  A    between atoms: _295  and  _297
REMARK  120  A    between atoms: _297  and  _298
REMARK  121  A    between atoms: _297  and  _300
REMARK  122  A    between atoms: _300  and  _301
REMARK  123  A    between atoms: _306  and  _308
REMARK  124  A    between atoms: _308  and  _309
REMARK  125  A    between atoms: _308  and  _311
REMARK  126  A    between atoms: _311  and  _312
REMARK  127  A    between atoms: _312  and  _313
REMARK  128  A    between atoms: _316  and  _318
REMARK  129  A    between atoms: _318  and  _319
REMARK  130  A    between atoms: _318  and  _321
REMARK  131  A    between atoms: _321  and  _322
REMARK  132  A    between atoms: _322  and  _323
REMARK  133  A    between atoms: _328  and  _330
REMARK  134  A    between atoms: _330  and  _331
REMARK  135  A    between atoms: _330  and  _333
REMARK  136  A    between atoms: _333  and  _334
REMARK  137  A    between atoms: _336  and  _338
REMARK  138  A    between atoms: _338  and  _339
REMARK  139  A    between atoms: _338  and  _341
REMARK  140  A    between atoms: _341  and  _342
REMARK  141  A    between atoms: _348  and  _350
REMARK  142  A    between atoms: _350  and  _351
REMARK  143  A    between atoms: _350  and  _353
REMARK  144  A    between atoms: _356  and  _358
REMARK  145  A    between atoms: _358  and  _359
REMARK  146  A    between atoms: _358  and  _361
REMARK  147  A    between atoms: _361  and  _362
REMARK  148  A    between atoms: _365  and  _367
REMARK  149  A    between atoms: _367  and  _368
REMARK  150  A    between atoms: _367  and  _370
REMARK  151  A    between atoms: _370  and  _371
REMARK  152  A    between atoms: _374  and  _376
REMARK  153  A    between atoms: _376  and  _377
REMARK  154  A    between atoms: _376  and  _379
REMARK  155  A    between atoms: _379  and  _380
REMARK  156  A    between atoms: _383  and  _385
REMARK  157  A    between atoms: _385  and  _386
REMARK  158  A    between atoms: _385  and  _388
REMARK  159  A    between atoms: _388  and  _389
REMARK  160  A    between atoms: _392  and  _394
REMARK  161  A    between atoms: _394  and  _395
REMARK  162  A    between atoms: _394  and  _397
REMARK  163  A    between atoms: _397  and  _398
REMARK  164  A    between atoms: _403  and  _404
REMARK  165  A    between atoms: _406  and  _408
REMARK  166  A    between atoms: _408  and  _409
REMARK  167  A    between atoms: _408  and  _411
REMARK  168  A    between atoms: _411  and  _412
REMARK  169  A    between atoms: _417  and  _418
REMARK  170  A    between atoms: _420  and  _422
REMARK  171  A    between atoms: _422  and  _423
REMARK  172  A    between atoms: _422  and  _425
REMARK  173  A    between atoms: _425  and  _426
REMARK  174  A    between atoms: _429  and  _431
REMARK  175  A    between atoms: _431  and  _432
REMARK  176  A    between atoms: _431  and  _434
REMARK  177  A    between atoms: _434  and  _435
REMARK  178  A    between atoms: _435  and  _436
REMARK  179  A    between atoms: _441  and  _443
REMARK  180  A    between atoms: _443  and  _444
REMARK  181  A    between atoms: _443  and  _446
REMARK  182  A    between atoms: _449  and  _451
REMARK  183  A    between atoms: _451  and  _452
REMARK  184  A    between atoms: _451  and  _454
REMARK  185  A    between atoms: _454  and  _455
REMARK  186  A    between atoms: _458  and  _460
REMARK  187  A    between atoms: _460  and  _461
REMARK  188  A    between atoms: _460  and  _463
REMARK  189  A    between atoms: _463  and  _464
REMARK  190  A    between atoms: _466  and  _468
REMARK  191  A    between atoms: _468  and  _469
REMARK  192  A    between atoms: _471  and  _473
REMARK  193  A    between atoms: _473  and  _474
REMARK  194  A    between atoms: _473  and  _476
REMARK  195  A    between atoms: _476  and  _477
REMARK  196  A    between atoms: _477  and  _772
REMARK  197  A    between atoms: _478  and  _480
REMARK  198  A    between atoms: _480  and  _481
REMARK  199  A    between atoms: _480  and  _483
REMARK  200  A    between atoms: _483  and  _484
REMARK  201  A    between atoms: _489  and  _490
REMARK  202  A    between atoms: _492  and  _494
REMARK  203  A    between atoms: _494  and  _495
REMARK  204  A    between atoms: _494  and  _497
REMARK  205  A    between atoms: _497  and  _498
REMARK  206  A    between atoms: _498  and  _499
REMARK  207  A    between atoms: _504  and  _506
REMARK  208  A    between atoms: _506  and  _507
REMARK  209  A    between atoms: _506  and  _509
REMARK  210  A    between atoms: _509  and  _510
REMARK  211  A    between atoms: _510  and  _511
REMARK  212  A    between atoms: _516  and  _518
REMARK  213  A    between atoms: _518  and  _519
REMARK  214  A    between atoms: _518  and  _521
REMARK  215  A    between atoms: _521  and  _522
REMARK  216  A    between atoms: _527  and  _528
REMARK  217  A    between atoms: _530  and  _532
REMARK  218  A    between atoms: _532  and  _533
REMARK  219  A    between atoms: _536  and  _538
REMARK  220  A    between atoms: _538  and  _539
REMARK  221  A    between atoms: _538  and  _541
REMARK  222  A    between atoms: _541  and  _542
REMARK  223  A    between atoms: _547  and  _548
REMARK  224  A    between atoms: _550  and  _552
REMARK  225  A    between atoms: _552  and  _553
REMARK  226  A    between atoms: _552  and  _555
REMARK  227  A    between atoms: _555  and  _556
REMARK  228  A    between atoms: _561  and  _562
REMARK  229  A    between atoms: _564  and  _566
REMARK  230  A    between atoms: _566  and  _567
REMARK  231  A    between atoms: _566  and  _569
REMARK  232  A    between atoms: _569  and  _570
REMARK  233  A    between atoms: _573  and  _575
REMARK  234  A    between atoms: _575  and  _576
REMARK  235  A    between atoms: _575  and  _578
REMARK  236  A    between atoms: _578  and  _579
REMARK  237  A    between atoms: _589  and  _591
REMARK  238  A    between atoms: _591  and  _592
REMARK  239  A    between atoms: _595  and  _597
REMARK  240  A    between atoms: _597  and  _598
REMARK  241  A    between atoms: _601  and  _603
REMARK  242  A    between atoms: _603  and  _604
REMARK  243  A    between atoms: _603  and  _606
REMARK  244  A    between atoms: _606  and  _607
REMARK  245  A    between atoms: _610  and  _612
REMARK  246  A    between atoms: _612  and  _613
REMARK  247  A    between atoms: _612  and  _615
REMARK  248  A    between atoms: _615  and  _616
REMARK  249  A    between atoms: _619  and  _621
REMARK  250  A    between atoms: _621  and  _622
REMARK  251  A    between atoms: _621  and  _624
REMARK  252  A    between atoms: _624  and  _625
REMARK  253  A    between atoms: _628  and  _630
REMARK  254  A    between atoms: _630  and  _631
REMARK  255  A    between atoms: _630  and  _633
REMARK  256  A    between atoms: _633  and  _634
REMARK  257  A    between atoms: _634  and  _635
REMARK  258  A    between atoms: _635  and  _636
REMARK  259  A    between atoms: _636  and  _637
REMARK  260  A    between atoms: _641  and  _643
REMARK  261  A    between atoms: _643  and  _644
REMARK  262  A    between atoms: _643  and  _646
REMARK  263  A    between atoms: _646  and  _647
REMARK  264  A    between atoms: _652  and  _654
REMARK  265  A    between atoms: _654  and  _655
REMARK  266  A    between atoms: _654  and  _657
REMARK  267  A    between atoms: _657  and  _658
REMARK  268  A    between atoms: _658  and  _659
REMARK  269  A    between atoms: _659  and  _660
REMARK  270  A    between atoms: _660  and  _661
REMARK  271  A    between atoms: _665  and  _667
REMARK  272  A    between atoms: _667  and  _668
REMARK  273  A    between atoms: _667  and  _670
REMARK  274  A    between atoms: _670  and  _671
REMARK  275  A    between atoms: _681  and  _683
REMARK  276  A    between atoms: _683  and  _684
REMARK  277  A    between atoms: _687  and  _689
REMARK  278  A    between atoms: _689  and  _690
REMARK  279  A    between atoms: _692  and  _694
REMARK  280  A    between atoms: _694  and  _695
REMARK  281  A    between atoms: _694  and  _697
REMARK  282  A    between atoms: _697  and  _698
REMARK  283  A    between atoms: _698  and  _699
REMARK  284  A    between atoms: _702  and  _704
REMARK  285  A    between atoms: _704  and  _705
REMARK  286  A    between atoms: _708  and  _710
REMARK  287  A    between atoms: _710  and  _711
REMARK  288  A    between atoms: _710  and  _713
REMARK  289  A    between atoms: _713  and  _714
REMARK  290  A    between atoms: _714  and  _715
REMARK  291  A    between atoms: _715  and  _716
REMARK  292  A    between atoms: _725  and  _727
REMARK  293  A    between atoms: _727  and  _728
REMARK  294  A    between atoms: _727  and  _730
REMARK  295  A    between atoms: _730  and  _731
REMARK  296  A    between atoms: _734  and  _736
REMARK  297  A    between atoms: _736  and  _737
REMARK  298  A    between atoms: _736  and  _739
REMARK  299  A    between atoms: _739  and  _740
REMARK  300  A    between atoms: _745  and  _746
REMARK  301  A    between atoms: _748  and  _750
REMARK  302  A    between atoms: _750  and  _751
REMARK  303  A    between atoms: _750  and  _753
REMARK  304  A    between atoms: _753  and  _754
REMARK  305  A    between atoms: _757  and  _759
REMARK  306  A    between atoms: _759  and  _760
REMARK  307  A    between atoms: _759  and  _762
REMARK  308  A    between atoms: _762  and  _763
REMARK  309  A    between atoms: _766  and  _768
REMARK  310  A    between atoms: _768  and  _769
REMARK  311  A    between atoms: _768  and  _771
REMARK  312  A    between atoms: _771  and  _772
REMARK  313  A    between atoms: _773  and  _775
REMARK  314  A    between atoms: _775  and  _776
REMARK  315  A    between atoms: _775  and  _778
REMARK  316  A    between atoms: _781  and  _783
REMARK  317  A    between atoms: _783  and  _784
REMARK  318  A    between atoms: _783  and  _786
REMARK  319  A    between atoms: _786  and  _787
REMARK  320  A    between atoms: _787  and  _788
REMARK  321  A    between atoms: _791  and  _793
REMARK  322  A    between atoms: _793  and  _794
REMARK  323  A    between atoms: _793  and  _796
REMARK  324  A    between atoms: _796  and  _797
REMARK  325  A    between atoms: _807  and  _809
REMARK  326  A    between atoms: _809  and  _810
REMARK  327  A    between atoms: _809  and  _812
REMARK  328  A    between atoms: _812  and  _813
REMARK  329  A    between atoms: _816  and  _818
REMARK  330  A    between atoms: _818  and  _819
REMARK  331  A    between atoms: _818  and  _821
REMARK  332  A    between atoms: _821  and  _822
REMARK  333  A    between atoms: _822  and  _823
REMARK  334  A    between atoms: _823  and  _824
REMARK  335  A    between atoms: _833  and  _835
REMARK  336  A    between atoms: _835  and  _836
REMARK  337  A    between atoms: _835  and  _838
REMARK  338  A    between atoms: _838  and  _839
REMARK  339  A    between atoms: _844  and  _845
REMARK                            x       y       z     vdW  Elec       q    Type
REMARK                         _______ _______ _______ _____ _____    ______ ____
ROOT
ATOM      1  CA  ARG A   5      41.623  63.021   7.400  0.00  0.00    +0.149 C 
ENDROOT
BRANCH   1   2
ATOM      2  C   ARG A   5      41.457  61.782   6.534  0.00  0.00    +0.241 C 
ATOM      3  N   GLU A   6      42.003  60.664   7.003  0.00  0.00    -0.297 N 
ATOM      4  H   GLU A   6      42.509  60.666   7.912  0.00  0.00    +0.150 HD
ATOM      5  O   ARG A   5      40.870  61.837   5.443  0.00  0.00    -0.273 OA
BRANCH   3   6
ATOM      6  CA  GLU A   6      41.883  59.437   6.228  0.00  0.00    +0.149 C 
BRANCH   6   7
ATOM      7  C   GLU A   6      40.423  59.044   6.049  0.00  0.00    +0.241 C 
ATOM      8  N   THR A   7      39.587  59.267   7.057  0.00  0.00    -0.295 N 
ATOM      9  H   THR A   7      39.947  59.678   7.942  0.00  0.00    +0.150 HD
ATOM     10  O   GLU A   6      40.049  58.548   4.995  0.00  0.00    -0.273 OA
BRANCH   8  11
ATOM     11  CA  THR A   7      38.170  58.942   6.937  0.00  0.00    +0.176 C 
BRANCH  11  12
ATOM     12  C   THR A   7      37.501  59.837   5.885  0.00  0.00    +0.243 C 
ATOM     13  N   GLN A   8      37.795  61.137   5.922  0.00  0.00    -0.297 N 
ATOM     14  H   GLN A   8      38.439  61.502   6.652  0.00  0.00    +0.150 HD
ATOM     15  O   THR A   7      36.723  59.366   5.061  0.00  0.00    -0.273 OA
BRANCH  13  16
ATOM     16  CA  GLN A   8      37.217  62.047   4.943  0.00  0.00    +0.149 C 
BRANCH  16  17
ATOM     17  C   GLN A   8      37.603  61.609   3.530  0.00  0.00    +0.241 C 
ATOM     18  N   LYS A   9      38.874  61.284   3.354  0.00  0.00    -0.297 N 
ATOM     19  H   LYS A   9      39.532  61.343   4.157  0.00  0.00    +0.150 HD
ATOM     20  O   GLN A   8      36.764  61.566   2.621  0.00  0.00    -0.273 OA
BRANCH  18  21
ATOM     21  CA  LYS A   9      39.367  60.846   2.060  0.00  0.00    +0.149 C 
BRANCH  21  22
ATOM     22  C   LYS A   9      38.652  59.578   1.616  0.00  0.00    +0.241 C 
ATOM     23  N   ALA A  10      38.473  58.634   2.540  0.00  0.00    -0.298 N 
ATOM     24  H   ALA A  10      38.815  58.789   3.510  0.00  0.00    +0.150 HD
ATOM     25  O   LYS A   9      38.261  59.454   0.446  0.00  0.00    -0.273 OA
BRANCH  23  26
ATOM     26  CA  ALA A  10      37.797  57.379   2.199  0.00  0.00    +0.137 C 
ATOM     27  CB  ALA A  10      37.811  56.412   3.398  0.00  0.00    +0.030 C 
BRANCH  26  28
ATOM     28  C   ALA A  10      36.364  57.614   1.742  0.00  0.00    +0.227 C 
ATOM     29  O   ALA A  10      35.902  57.011   0.765  0.00  0.00    -0.286 OA
ENDBRANCH  26  28
ENDBRANCH  23  26
ENDBRANCH  21  22
BRANCH  21  30
ATOM     30  CB  LYS A   9      40.873  60.612   2.135  0.00  0.00    +0.029 C 
BRANCH  30  31
ATOM     31  CG  LYS A   9      41.682  61.886   2.198  0.00  0.00    +0.000 C 
BRANCH  31  32
ATOM     32  CD  LYS A   9      43.076  61.667   2.739  0.00  0.00    -0.024 C 
BRANCH  32  33
ATOM     33  CE  LYS A   9      43.943  60.769   1.853  0.00  0.00    -0.086 C 
BRANCH  33  34
ATOM     34  NZ  LYS A   9      45.289  60.628   2.479  0.00  0.00    +0.380 N 
ATOM     35  HZ1 LYS A   9      45.188  60.201   3.422  0.00  0.00    -0.089 HD
ATOM     36  HZ2 LYS A   9      45.729  61.566   2.567  0.00  0.00    -0.089 HD
ATOM     37  HZ3 LYS A   9      45.885  60.019   1.883  0.00  0.00    -0.089 HD
ENDBRANCH  33  34
ENDBRANCH  32  33
ENDBRANCH  31  32
ENDBRANCH  30  31
ENDBRANCH  21  30
ENDBRANCH  18  21
ENDBRANCH  16  17
BRANCH  16  38
ATOM     38  CB  GLN A   8      37.710  63.478   5.180  0.00  0.00    +0.039 C 
BRANCH  38  39
ATOM     39  CG  GLN A   8      36.945  64.244   6.246  0.00  0.00    +0.087 C 
BRANCH  39  40
ATOM     40  CD  GLN A   8      37.460  65.678   6.408  0.00  0.00    +0.219 C 
ATOM     41  NE2 GLN A   8      37.558  66.138   7.653  0.00  0.00    -0.329 N 
ATOM     42 HE21 GLN A   8      37.293  65.530   8.454  0.00  0.00    +0.145 HD
ATOM     43 HE22 GLN A   8      37.899  67.105   7.825  0.00  0.00    +0.145 HD
ATOM     44  OE1 GLN A   8      37.762  66.360   5.421  0.00  0.00    -0.275 OA
ENDBRANCH  39  40
ENDBRANCH  38  39
ENDBRANCH  16  38
ENDBRANCH  13  16
ENDBRANCH  11  12
BRANCH  11  45
ATOM     45  CB  THR A   7      37.438  59.106   8.294  0.00  0.00    +0.137 C 
ATOM     46  CG2 THR A   7      35.928  58.849   8.137  0.00  0.00    +0.034 C 
BRANCH  45  47
ATOM     47  OG1 THR A   7      37.980  58.171   9.233  0.00  0.00    -0.382 OA
ATOM     48  HG1 THR A   7      38.947  58.347   9.352  0.00  0.00    +0.210 HD
ENDBRANCH  45  47
ENDBRANCH  11  45
ENDBRANCH   8  11
ENDBRANCH   6   7
BRANCH   6  49
ATOM     49  CB  GLU A   6      42.680  58.304   6.891  0.00  0.00    +0.041 C 
BRANCH  49  50
ATOM     50  CG  GLU A   6      44.203  58.420   6.710  0.00  0.00    +0.116 C 
BRANCH  50  51
ATOM     51  CD  GLU A   6      44.647  58.318   5.238  0.00  0.00    +0.365 C 
ATOM     52  OE2 GLU A   6      45.581  57.554   4.948  0.00  0.00    -0.246 OA
ATOM     53  OE1 GLU A   6      44.071  59.005   4.371  0.00  0.00    -0.246 OA
ENDBRANCH  50  51
ENDBRANCH  49  50
ENDBRANCH   6  49
ENDBRANCH   3   6
ENDBRANCH   1   2
BRANCH   1  55
ATOM     54  C   GLU A   4      39.981  62.500   9.121  0.00  0.00    +0.241 C 
ATOM     55  N   ARG A   5      41.236  62.770   8.790  0.00  0.00    -0.297 N 
ATOM     56  H   ARG A   5      41.962  62.804   9.534  0.00  0.00    +0.150 HD
ATOM     57  O   GLU A   4      39.070  62.428   8.285  0.00  0.00    -0.273 OA
BRANCH  54  58
ATOM     58  CA  GLU A   4      39.704  62.257  10.606  0.00  0.00    +0.149 C 
BRANCH  58  60
ATOM     59  C   TRP A   3      40.899  60.163  10.746  0.00  0.00    +0.241 C 
ATOM     60  N   GLU A   4      40.746  61.412  11.171  0.00  0.00    -0.297 N 
ATOM     61  H   GLU A   4      41.373  61.788  11.911  0.00  0.00    +0.150 HD
ATOM     62  O   TRP A   3      40.177  59.662   9.874  0.00  0.00    -0.273 OA
BRANCH  59  63
ATOM     63  CA  TRP A   3      42.025  59.359  11.384  0.00  0.00    +0.153 C 
BRANCH  63  65
ATOM     64  C   TYR A   2      43.981  60.592  10.603  0.00  0.00    +0.241 C 
ATOM     65  N   TRP A   3      43.247  60.118  11.605  0.00  0.00    -0.297 N 
ATOM     66  H   TRP A   3      43.557  60.296  12.582  0.00  0.00    +0.150 HD
ATOM     67  O   TYR A   2      43.668  60.466   9.411  0.00  0.00    -0.273 OA
BRANCH  64  68
ATOM     68  CA  TYR A   2      45.236  61.341  11.013  0.00  0.00    +0.153 C 
BRANCH  68  70
ATOM     69  C   GLU A   1      43.982  63.289  11.730  0.00  0.00    +0.238 C 
ATOM     70  N   TYR A   2      44.868  62.340  12.011  0.00  0.00    -0.297 N 
ATOM     71  H   TYR A   2      45.305  62.309  12.954  0.00  0.00    +0.150 HD
ATOM     72  O   GLU A   1      43.434  63.388  10.625  0.00  0.00    -0.274 OA
BRANCH  69  73
ATOM     73  CA  GLU A   1      43.662  64.272  12.854  0.00  0.00    +0.145 C 
BRANCH  73  74
ATOM     74  N   GLU A   1      43.731  63.630  14.173  0.00  0.00    -0.238 NA
ATOM     75  H   GLU A   1      44.450  63.939  14.858  0.00  0.00    +0.142 HD
ENDBRANCH  73  74
BRANCH  73  76
ATOM     76  CB  GLU A   1      44.621  65.474  12.759  0.00  0.00    +0.038 C 
BRANCH  76  77
ATOM     77  CG  GLU A   1      44.710  66.061  11.336  0.00  0.00    +0.116 C 
BRANCH  77  78
ATOM     78  CD  GLU A   1      45.302  67.474  11.275  0.00  0.00    +0.365 C 
ATOM     79  OE2 GLU A   1      46.490  67.658  11.631  0.00  0.00    -0.246 OA
ATOM     80  OE1 GLU A   1      44.567  68.404  10.865  0.00  0.00    -0.246 OA
ENDBRANCH  77  78
ENDBRANCH  76  77
ENDBRANCH  73  76
ENDBRANCH  69  73
ENDBRANCH  68  70
BRANCH  68  81
ATOM     81  CB  TYR A   2      46.266  60.368  11.606  0.00  0.00    +0.055 C 
BRANCH  81  82
ATOM     82  CG  TYR A   2      46.675  59.242  10.668  0.00  0.00    -0.020 A 
ATOM     83  CD2 TYR A   2      45.894  58.083  10.548  0.00  0.00    -0.001 A 
ATOM     84  CE2 TYR A   2      46.260  57.058   9.676  0.00  0.00    +0.036 A 
ATOM     85  CZ  TYR A   2      47.423  57.184   8.916  0.00  0.00    +0.134 A 
ATOM     86  CE1 TYR A   2      48.213  58.318   9.018  0.00  0.00    +0.036 A 
ATOM     87  CD1 TYR A   2      47.827  59.346   9.899  0.00  0.00    -0.001 A 
BRANCH  85  88
ATOM     88  OH  TYR A   2      47.825  56.177   8.072  0.00  0.00    -0.506 OA
ATOM     89  HH  TYR A   2      47.885  56.527   7.148  0.00  0.00    +0.292 HD
ENDBRANCH  85  88
ENDBRANCH  81  82
ENDBRANCH  68  81
ENDBRANCH  64  68
ENDBRANCH  63  65
BRANCH  63  90
ATOM     90  CB  TRP A   3      41.579  58.746  12.716  0.00  0.00    +0.057 C 
BRANCH  90  91
ATOM     91  CG  TRP A   3      42.694  57.942  13.314  0.00  0.00    -0.002 A 
ATOM     92  CD1 TRP A   3      43.449  58.258  14.421  0.00  0.00    +0.068 A 
ATOM     93  NE1 TRP A   3      44.454  57.325  14.588  0.00  0.00    -0.352 N 
ATOM     94  HE1 TRP A   3      45.165  57.330  15.347  0.00  0.00    +0.166 HD
ATOM     95  CE2 TRP A   3      44.359  56.391  13.587  0.00  0.00    +0.056 A 
ATOM     96  CZ2 TRP A   3      45.150  55.267  13.332  0.00  0.00    +0.017 A 
ATOM     97  CH2 TRP A   3      44.831  54.493  12.240  0.00  0.00    +0.001 A 
ATOM     98  CZ3 TRP A   3      43.755  54.808  11.414  0.00  0.00    +0.000 A 
ATOM     99  CE3 TRP A   3      42.959  55.935  11.666  0.00  0.00    +0.001 A 
ATOM    100  CD2 TRP A   3      43.266  56.743  12.771  0.00  0.00    +0.013 A 
ENDBRANCH  90  91
ENDBRANCH  63  90
ENDBRANCH  59  63
ENDBRANCH  58  60
BRANCH  58 101
ATOM    101  CB  GLU A   4      39.649  63.589  11.360  0.00  0.00    +0.041 C 
BRANCH 101 102
ATOM    102  CG  GLU A   4      38.349  64.354  11.178  0.00  0.00    +0.116 C 
BRANCH 102 103
ATOM    103  CD  GLU A   4      37.118  63.567  11.629  0.00  0.00    +0.365 C 
ATOM    104  OE2 GLU A   4      37.248  62.617  12.435  0.00  0.00    -0.246 OA
ATOM    105  OE1 GLU A   4      36.002  63.911  11.180  0.00  0.00    -0.246 OA
ENDBRANCH 102 103
ENDBRANCH 101 102
ENDBRANCH  58 101
ENDBRANCH  54  58
ENDBRANCH   1  55
BRANCH   1 106
ATOM    106  CB  ARG A   5      43.079  63.462   7.319  0.00  0.00    +0.033 C 
BRANCH 106 107
ATOM    107  CG  ARG A   5      43.341  64.880   7.763  0.00  0.00    +0.045 C 
BRANCH 107 108
ATOM    108  CD  ARG A   5      44.829  65.155   7.775  0.00  0.00    +0.174 C 
BRANCH 108 109
ATOM    109  NE  ARG A   5      45.080  66.585   7.698  0.00  0.00    -0.265 N 
ATOM    110  HE  ARG A   5      44.812  67.173   8.513  0.00  0.00    +0.259 HD
ATOM    111  CZ  ARG A   5      45.631  67.184   6.649  0.00  0.00    +0.342 C 
ATOM    112  NH2 ARG A   5      45.761  68.504   6.639  0.00  0.00    -0.292 N 
ATOM    113 HH21 ARG A   5      45.432  69.065   7.451  0.00  0.00    +0.255 HD
ATOM    114 HH22 ARG A   5      46.192  68.978   5.820  0.00  0.00    +0.255 HD
ATOM    115  NH1 ARG A   5      46.009  66.468   5.594  0.00  0.00    -0.292 N 
ATOM    116 HH11 ARG A   5      45.873  65.437   5.590  0.00  0.00    +0.255 HD
ATOM    117 HH12 ARG A   5      46.440  66.939   4.773  0.00  0.00    +0.255 HD
ENDBRANCH 108 109
ENDBRANCH 107 108
ENDBRANCH 106 107
ENDBRANCH   1 106
TORSDOF 48
REMARK  Name = ../refined-set-2016/1fzo/1fzo_pocket.pdb
REMARK  339 active torsions:
REMARK  status: ('A' for Active; 'I' for Inactive)
REMARK    1  A    between atoms: _1  and  _3
REMARK    2  A    between atoms: _3  and  _4
REMARK    3  A    between atoms: _3  and  _6
REMARK    4  A    between atoms: _6  and  _7
REMARK    5  A    between atoms: _10  and  _12
REMARK    6  A    between atoms: _12  and  _13
REMARK    7  A    between atoms: _12  and  _15
REMARK    8  A    between atoms: _15  and  _16
REMARK    9  A    between atoms: _16  and  _17
REMARK   10  A    between atoms: _17  and  _18
REMARK   11  A    between atoms: _27  and  _29
REMARK   12  A    between atoms: _29  and  _30
REMARK   13  A    between atoms: _29  and  _32
REMARK   14  A    between atoms: _32  and  _33
REMARK   15  A    between atoms: _38  and  _39
REMARK   16  A    between atoms: _41  and  _43
REMARK   17  A    between atoms: _43  and  _44
REMARK   18  A    between atoms: _43  and  _46
REMARK   19  A    between atoms: _46  and  _47
REMARK   20  A    between atoms: _53  and  _55
REMARK   21  A    between atoms: _55  and  _56
REMARK   22  A    between atoms: _55  and  _58
REMARK   23  A    between atoms: _61  and  _63
REMARK   24  A    between atoms: _63  and  _64
REMARK   25  A    between atoms: _63  and  _66
REMARK   26  A    between atoms: _66  and  _67
REMARK   27  A    between atoms: _70  and  _72
REMARK   28  A    between atoms: _72  and  _73
REMARK   29  A    between atoms: _72  and  _75
REMARK   30  A    between atoms: _75  and  _76
REMARK   31  A    between atoms: _82  and  _84
REMARK   32  A    between atoms: _84  and  _85
REMARK   33  A    between atoms: _84  and  _87
REMARK   34  A    between atoms: _87  and  _88
REMARK   35  A    between atoms: _91  and  _93
REMARK   36  A    between atoms: _93  and  _94
REMARK   37  A    between atoms: _93  and  _96
REMARK   38  A    between atoms: _96  and  _97
REMARK   39  A    between atoms: _99  and  _101
REMARK   40  A    between atoms: _101  and  _102
REMARK   41  A    between atoms: _101  and  _104
REMARK   42  A    between atoms: _107  and  _109
REMARK   43  A    between atoms: _109  and  _110
REMARK   44  A    between atoms: _112  and  _114
REMARK   45  A    between atoms: _114  and  _115
REMARK   46  A    between atoms: _114  and  _117
REMARK   47  A    between atoms: _120  and  _122
REMARK   48  A    between atoms: _122  and  _123
REMARK   49  A    between atoms: _122  and  _125
REMARK   50  A    between atoms: _125  and  _126
REMARK   51  A    between atoms: _132  and  _134
REMARK   52  A    between atoms: _134  and  _135
REMARK   53  A    between atoms: _134  and  _137
REMARK   54  A    between atoms: _140  and  _142
REMARK   55  A    between atoms: _142  and  _143
REMARK   56  A    between atoms: _142  and  _145
REMARK   57  A    between atoms: _145  and  _146
REMARK   58  A    between atoms: _151  and  _152
REMARK   59  A    between atoms: _154  and  _156
REMARK   60  A    between atoms: _156  and  _157
REMARK   61  A    between atoms: _156  and  _159
REMARK   62  A    between atoms: _159  and  _160
REMARK   63  A    between atoms: _160  and  _161
REMARK   64  A    between atoms: _163  and  _165
REMARK   65  A    between atoms: _165  and  _166
REMARK   66  A    between atoms: _165  and  _168
REMARK   67  A    between atoms: _168  and  _169
REMARK   68  A    between atoms: _169  and  _170
REMARK   69  A    between atoms: _173  and  _175
REMARK   70  A    between atoms: _175  and  _176
REMARK   71  A    between atoms: _175  and  _178
REMARK   72  A    between atoms: _178  and  _179
REMARK   73  A    between atoms: _179  and  _180
REMARK   74  A    between atoms: _183  and  _185
REMARK   75  A    between atoms: _185  and  _186
REMARK   76  A    between atoms: _185  and  _188
REMARK   77  A    between atoms: _188  and  _189
REMARK   78  A    between atoms: _194  and  _195
REMARK   79  A    between atoms: _197  and  _199
REMARK   80  A    between atoms: _199  and  _200
REMARK   81  A    between atoms: _199  and  _202
REMARK   82  A    between atoms: _202  and  _203
REMARK   83  A    between atoms: _213  and  _215
REMARK   84  A    between atoms: _215  and  _216
REMARK   85  A    between atoms: _215  and  _218
REMARK   86  A    between atoms: _218  and  _219
REMARK   87  A    between atoms: _219  and  _220
REMARK   88  A    between atoms: _223  and  _225
REMARK   89  A    between atoms: _225  and  _226
REMARK   90  A    between atoms: _225  and  _228
REMARK   91  A    between atoms: _228  and  _229
REMARK   92  A    between atoms: _229  and  _230
REMARK   93  A    between atoms: _230  and  _231
REMARK   94  A    between atoms: _240  and  _242
REMARK   95  A    between atoms: _242  and  _243
REMARK   96  A    between atoms: _242  and  _245
REMARK   97  A    between atoms: _245  and  _246
REMARK   98  A    between atoms: _246  and  _247
REMARK   99  A    between atoms: _250  and  _252
REMARK  100  A    between atoms: _252  and  _253
REMARK  101  A    between atoms: _252  and  _255
REMARK  102  A    between atoms: _255  and  _256
REMARK  103  A    between atoms: _259  and  _261
REMARK  104  A    between atoms: _261  and  _262
REMARK  105  A    between atoms: _261  and  _264
REMARK  106  A    between atoms: _264  and  _265
REMARK  107  A    between atoms: _265  and  _266
REMARK  108  A    between atoms: _271  and  _273
REMARK  109  A    between atoms: _273  and  _274
REMARK  110  A    between atoms: _273  and  _276
REMARK  111  A    between atoms: _276  and  _277
REMARK  112  A    between atoms: _277  and  _278
REMARK  113  A    between atoms: _278  and  _279
REMARK  114  A    between atoms: _279  and  _280
REMARK  115  A    between atoms: _284  and  _286
REMARK  116  A    between atoms: _286  and  _287
REMARK  117  A    between atoms: _290  and  _292
REMARK  118  A    between atoms: _292  and  _293
REMARK  119  A    between atoms: _295  and  _297
REMARK  120  A    between atoms: _297  and  _298
REMARK  121  A    between atoms: _297  and  _300
REMARK  122  A    between atoms: _300  and  _301
REMARK  123  A    between atoms: _306  and  _308
REMARK  124  A    between atoms: _308  and  _309
REMARK  125  A    between atoms: _308  and  _311
REMARK  126  A    between atoms: _311  and  _312
REMARK  127  A    between atoms: _312  and  _313
REMARK  128  A    between atoms: _316  and  _318
REMARK  129  A    between atoms: _318  and  _319
REMARK  130  A    between atoms: _318  and  _321
REMARK  131  A    between atoms: _321  and  _322
REMARK  132  A    between atoms: _322  and  _323
REMARK  133  A    between atoms: _328  and  _330
REMARK  134  A    between atoms: _330  and  _331
REMARK  135  A    between atoms: _330  and  _333
REMARK  136  A    between atoms: _333  and  _334
REMARK  137  A    between atoms: _336  and  _338
REMARK  138  A    between atoms: _338  and  _339
REMARK  139  A    between atoms: _338  and  _341
REMARK  140  A    between atoms: _341  and  _342
REMARK  141  A    between atoms: _348  and  _350
REMARK  142  A    between atoms: _350  and  _351
REMARK  143  A    between atoms: _350  and  _353
REMARK  144  A    between atoms: _356  and  _358
REMARK  145  A    between atoms: _358  and  _359
REMARK  146  A    between atoms: _358  and  _361
REMARK  147  A    between atoms: _361  and  _362
REMARK  148  A    between atoms: _365  and  _367
REMARK  149  A    between atoms: _367  and  _368
REMARK  150  A    between atoms: _367  and  _370
REMARK  151  A    between atoms: _370  and  _371
REMARK  152  A    between atoms: _374  and  _376
REMARK  153  A    between atoms: _376  and  _377
REMARK  154  A    between atoms: _376  and  _379
REMARK  155  A    between atoms: _379  and  _380
REMARK  156  A    between atoms: _383  and  _385
REMARK  157  A    between atoms: _385  and  _386
REMARK  158  A    between atoms: _385  and  _388
REMARK  159  A    between atoms: _388  and  _389
REMARK  160  A    between atoms: _392  and  _394
REMARK  161  A    between atoms: _394  and  _395
REMARK  162  A    between atoms: _394  and  _397
REMARK  163  A    between atoms: _397  and  _398
REMARK  164  A    between atoms: _403  and  _404
REMARK  165  A    between atoms: _406  and  _408
REMARK  166  A    between atoms: _408  and  _409
REMARK  167  A    between atoms: _408  and  _411
REMARK  168  A    between atoms: _411  and  _412
REMARK  169  A    between atoms: _417  and  _418
REMARK  170  A    between atoms: _420  and  _422
REMARK  171  A    between atoms: _422  and  _423
REMARK  172  A    between atoms: _422  and  _425
REMARK  173  A    between atoms: _425  and  _426
REMARK  174  A    between atoms: _429  and  _431
REMARK  175  A    between atoms: _431  and  _432
REMARK  176  A    between atoms: _431  and  _434
REMARK  177  A    between atoms: _434  and  _435
REMARK  178  A    between atoms: _435  and  _436
REMARK  179  A    between atoms: _441  and  _443
REMARK  180  A    between atoms: _443  and  _444
REMARK  181  A    between atoms: _443  and  _446
REMARK  182  A    between atoms: _449  and  _451
REMARK  183  A    between atoms: _451  and  _452
REMARK  184  A    between atoms: _451  and  _454
REMARK  185  A    between atoms: _454  and  _455
REMARK  186  A    between atoms: _458  and  _460
REMARK  187  A    between atoms: _460  and  _461
REMARK  188  A    between atoms: _460  and  _463
REMARK  189  A    between atoms: _463  and  _464
REMARK  190  A    between atoms: _466  and  _468
REMARK  191  A    between atoms: _468  and  _469
REMARK  192  A    between atoms: _471  and  _473
REMARK  193  A    between atoms: _473  and  _474
REMARK  194  A    between atoms: _473  and  _476
REMARK  195  A    between atoms: _476  and  _477
REMARK  196  A    between atoms: _477  and  _772
REMARK  197  A    between atoms: _478  and  _480
REMARK  198  A    between atoms: _480  and  _481
REMARK  199  A    between atoms: _480  and  _483
REMARK  200  A    between atoms: _483  and  _484
REMARK  201  A    between atoms: _489  and  _490
REMARK  202  A    between atoms: _492  and  _494
REMARK  203  A    between atoms: _494  and  _495
REMARK  204  A    between atoms: _494  and  _497
REMARK  205  A    between atoms: _497  and  _498
REMARK  206  A    between atoms: _498  and  _499
REMARK  207  A    between atoms: _504  and  _506
REMARK  208  A    between atoms: _506  and  _507
REMARK  209  A    between atoms: _506  and  _509
REMARK  210  A    between atoms: _509  and  _510
REMARK  211  A    between atoms: _510  and  _511
REMARK  212  A    between atoms: _516  and  _518
REMARK  213  A    between atoms: _518  and  _519
REMARK  214  A    between atoms: _518  and  _521
REMARK  215  A    between atoms: _521  and  _522
REMARK  216  A    between atoms: _527  and  _528
REMARK  217  A    between atoms: _530  and  _532
REMARK  218  A    between atoms: _532  and  _533
REMARK  219  A    between atoms: _536  and  _538
REMARK  220  A    between atoms: _538  and  _539
REMARK  221  A    between atoms: _538  and  _541
REMARK  222  A    between atoms: _541  and  _542
REMARK  223  A    between atoms: _547  and  _548
REMARK  224  A    between atoms: _550  and  _552
REMARK  225  A    between atoms: _552  and  _553
REMARK  226  A    between atoms: _552  and  _555
REMARK  227  A    between atoms: _555  and  _556
REMARK  228  A    between atoms: _561  and  _562
REMARK  229  A    between atoms: _564  and  _566
REMARK  230  A    between atoms: _566  and  _567
REMARK  231  A    between atoms: _566  and  _569
REMARK  232  A    between atoms: _569  and  _570
REMARK  233  A    between atoms: _573  and  _575
REMARK  234  A    between atoms: _575  and  _576
REMARK  235  A    between atoms: _575  and  _578
REMARK  236  A    between atoms: _578  and  _579
REMARK  237  A    between atoms: _589  and  _591
REMARK  238  A    between atoms: _591  and  _592
REMARK  239  A    between atoms: _595  and  _597
REMARK  240  A    between atoms: _597  and  _598
REMARK  241  A    between atoms: _601  and  _603
REMARK  242  A    between atoms: _603  and  _604
REMARK  243  A    between atoms: _603  and  _606
REMARK  244  A    between atoms: _606  and  _607
REMARK  245  A    between atoms: _610  and  _612
REMARK  246  A    between atoms: _612  and  _613
REMARK  247  A    between atoms: _612  and  _615
REMARK  248  A    between atoms: _615  and  _616
REMARK  249  A    between atoms: _619  and  _621
REMARK  250  A    between atoms: _621  and  _622
REMARK  251  A    between atoms: _621  and  _624
REMARK  252  A    between atoms: _624  and  _625
REMARK  253  A    between atoms: _628  and  _630
REMARK  254  A    between atoms: _630  and  _631
REMARK  255  A    between atoms: _630  and  _633
REMARK  256  A    between atoms: _633  and  _634
REMARK  257  A    between atoms: _634  and  _635
REMARK  258  A    between atoms: _635  and  _636
REMARK  259  A    between atoms: _636  and  _637
REMARK  260  A    between atoms: _641  and  _643
REMARK  261  A    between atoms: _643  and  _644
REMARK  262  A    between atoms: _643  and  _646
REMARK  263  A    between atoms: _646  and  _647
REMARK  264  A    between atoms: _652  and  _654
REMARK  265  A    between atoms: _654  and  _655
REMARK  266  A    between atoms: _654  and  _657
REMARK  267  A    between atoms: _657  and  _658
REMARK  268  A    between atoms: _658  and  _659
REMARK  269  A    between atoms: _659  and  _660
REMARK  270  A    between atoms: _660  and  _661
REMARK  271  A    between atoms: _665  and  _667
REMARK  272  A    between atoms: _667  and  _668
REMARK  273  A    between atoms: _667  and  _670
REMARK  274  A    between atoms: _670  and  _671
REMARK  275  A    between atoms: _681  and  _683
REMARK  276  A    between atoms: _683  and  _684
REMARK  277  A    between atoms: _687  and  _689
REMARK  278  A    between atoms: _689  and  _690
REMARK  279  A    between atoms: _692  and  _694
REMARK  280  A    between atoms: _694  and  _695
REMARK  281  A    between atoms: _694  and  _697
REMARK  282  A    between atoms: _697  and  _698
REMARK  283  A    between atoms: _698  and  _699
REMARK  284  A    between atoms: _702  and  _704
REMARK  285  A    between atoms: _704  and  _705
REMARK  286  A    between atoms: _708  and  _710
REMARK  287  A    between atoms: _710  and  _711
REMARK  288  A    between atoms: _710  and  _713
REMARK  289  A    between atoms: _713  and  _714
REMARK  290  A    between atoms: _714  and  _715
REMARK  291  A    between atoms: _715  and  _716
REMARK  292  A    between atoms: _725  and  _727
REMARK  293  A    between atoms: _727  and  _728
REMARK  294  A    between atoms: _727  and  _730
REMARK  295  A    between atoms: _730  and  _731
REMARK  296  A    between atoms: _734  and  _736
REMARK  297  A    between atoms: _736  and  _737
REMARK  298  A    between atoms: _736  and  _739
REMARK  299  A    between atoms: _739  and  _740
REMARK  300  A    between atoms: _745  and  _746
REMARK  301  A    between atoms: _748  and  _750
REMARK  302  A    between atoms: _750  and  _751
REMARK  303  A    between atoms: _750  and  _753
REMARK  304  A    between atoms: _753  and  _754
REMARK  305  A    between atoms: _757  and  _759
REMARK  306  A    between atoms: _759  and  _760
REMARK  307  A    between atoms: _759  and  _762
REMARK  308  A    between atoms: _762  and  _763
REMARK  309  A    between atoms: _766  and  _768
REMARK  310  A    between atoms: _768  and  _769
REMARK  311  A    between atoms: _768  and  _771
REMARK  312  A    between atoms: _771  and  _772
REMARK  313  A    between atoms: _773  and  _775
REMARK  314  A    between atoms: _775  and  _776
REMARK  315  A    between atoms: _775  and  _778
REMARK  316  A    between atoms: _781  and  _783
REMARK  317  A    between atoms: _783  and  _784
REMARK  318  A    between atoms: _783  and  _786
REMARK  319  A    between atoms: _786  and  _787
REMARK  320  A    between atoms: _787  and  _788
REMARK  321  A    between atoms: _791  and  _793
REMARK  322  A    between atoms: _793  and  _794
REMARK  323  A    between atoms: _793  and  _796
REMARK  324  A    between atoms: _796  and  _797
REMARK  325  A    between atoms: _807  and  _809
REMARK  326  A    between atoms: _809  and  _810
REMARK  327  A    between atoms: _809  and  _812
REMARK  328  A    between atoms: _812  and  _813
REMARK  329  A    between atoms: _816  and  _818
REMARK  330  A    between atoms: _818  and  _819
REMARK  331  A    between atoms: _818  and  _821
REMARK  332  A    between atoms: _821  and  _822
REMARK  333  A    between atoms: _822  and  _823
REMARK  334  A    between atoms: _823  and  _824
REMARK  335  A    between atoms: _833  and  _835
REMARK  336  A    between atoms: _835  and  _836
REMARK  337  A    between atoms: _835  and  _838
REMARK  338  A    between atoms: _838  and  _839
REMARK  339  A    between atoms: _844  and  _845
REMARK                            x       y       z     vdW  Elec       q    Type
REMARK                         _______ _______ _______ _____ _____    ______ ____
ROOT
ATOM      1  CA  GLN A   4      31.785  58.535  -4.131  0.00  0.00    +0.149 C 
ENDROOT
BRANCH   1   2
ATOM      2  C   GLN A   4      32.401  58.445  -5.511  0.00  0.00    +0.241 C 
ATOM      3  N   SER A   5      33.709  58.629  -5.612  0.00  0.00    -0.295 N 
ATOM      4  H   SER A   5      34.281  58.808  -4.762  0.00  0.00    +0.150 HD
ATOM      5  O   GLN A   4      31.699  58.198  -6.484  0.00  0.00    -0.273 OA
BRANCH   3   6
ATOM      6  CA  SER A   5      34.335  58.579  -6.918  0.00  0.00    +0.178 C 
BRANCH   6   7
ATOM      7  C   SER A   5      34.271  57.170  -7.526  0.00  0.00    +0.243 C 
ATOM      8  N   PHE A   6      34.388  56.140  -6.694  0.00  0.00    -0.298 N 
ATOM      9  H   PHE A   6      34.531  56.290  -5.675  0.00  0.00    +0.150 HD
ATOM     10  O   SER A   5      34.085  57.016  -8.738  0.00  0.00    -0.273 OA
BRANCH   8  11
ATOM     11  CA  PHE A   6      34.310  54.795  -7.248  0.00  0.00    +0.141 C 
BRANCH  11  12
ATOM     12  C   PHE A   6      32.881  54.450  -7.641  0.00  0.00    +0.227 C 
ATOM     13  O   PHE A   6      32.663  53.677  -8.569  0.00  0.00    -0.286 OA
ENDBRANCH  11  12
BRANCH  11  14
ATOM     14  CB  PHE A   6      34.915  53.773  -6.281  0.00  0.00    +0.054 C 
BRANCH  14  15
ATOM     15  CG  PHE A   6      36.422  53.755  -6.325  0.00  0.00    -0.020 A 
ATOM     16  CD2 PHE A   6      37.173  54.492  -5.421  0.00  0.00    -0.004 A 
ATOM     17  CE2 PHE A   6      38.564  54.543  -5.524  0.00  0.00    -0.000 A 
ATOM     18  CZ  PHE A   6      39.216  53.851  -6.540  0.00  0.00    -0.000 A 
ATOM     19  CE1 PHE A   6      38.477  53.114  -7.441  0.00  0.00    -0.000 A 
ATOM     20  CD1 PHE A   6      37.088  53.068  -7.328  0.00  0.00    -0.004 A 
ENDBRANCH  14  15
ENDBRANCH  11  14
ENDBRANCH   8  11
ENDBRANCH   6   7
BRANCH   6  21
ATOM     21  CB  SER A   5      35.778  59.093  -6.837  0.00  0.00    +0.166 C 
BRANCH  21  22
ATOM     22  OG  SER A   5      36.618  58.226  -6.110  0.00  0.00    -0.380 OA
ATOM     23  H   SER A   5      36.633  57.339  -6.549  0.00  0.00    +0.211 HD
ENDBRANCH  21  22
ENDBRANCH   6  21
ENDBRANCH   3   6
ENDBRANCH   1   2
BRANCH   1  25
ATOM     24  C   GLU A   3      32.530  56.470  -3.164  0.00  0.00    +0.241 C 
ATOM     25  N   GLN A   4      32.510  57.793  -3.130  0.00  0.00    -0.297 N 
ATOM     26  H   GLN A   4      33.019  58.299  -2.378  0.00  0.00    +0.150 HD
ATOM     27  O   GLU A   3      31.940  55.819  -4.011  0.00  0.00    -0.273 OA
BRANCH  24  28
ATOM     28  CA  GLU A   3      33.305  55.797  -2.050  0.00  0.00    +0.149 C 
BRANCH  28  30
ATOM     29  C   ASN A   2      35.352  56.762  -2.857  0.00  0.00    +0.241 C 
ATOM     30  N   GLU A   3      34.548  56.514  -1.832  0.00  0.00    -0.297 N 
ATOM     31  H   GLU A   3      34.807  56.832  -0.876  0.00  0.00    +0.150 HD
ATOM     32  O   ASN A   2      35.096  56.368  -4.002  0.00  0.00    -0.273 OA
BRANCH  29  33
ATOM     33  CA  ASN A   2      36.630  57.535  -2.558  0.00  0.00    +0.158 C 
BRANCH  33  35
ATOM     34  C   GLY A   1      35.626  59.687  -2.010  0.00  0.00    +0.240 C 
ATOM     35  N   ASN A   2      36.385  58.651  -1.649  0.00  0.00    -0.297 N 
ATOM     36  H   ASN A   2      36.811  58.638  -0.700  0.00  0.00    +0.150 HD
ATOM     37  O   GLY A   1      35.107  59.777  -3.126  0.00  0.00    -0.274 OA
BRANCH  34  38
ATOM     38  CA  GLY A   1      35.425  60.782  -0.966  0.00  0.00    +0.169 C 
BRANCH  38  39
ATOM     39  N   GLY A   1      35.314  60.161   0.342  0.00  0.00    -0.236 NA
ATOM     40  H   GLY A   1      36.056  60.318   1.053  0.00  0.00    +0.142 HD
ENDBRANCH  38  39
ENDBRANCH  34  38
ENDBRANCH  33  35
BRANCH  33  41
ATOM     41  CB  ASN A   2      37.653  56.562  -1.975  0.00  0.00    +0.114 C 
BRANCH  41  42
ATOM     42  CG  ASN A   2      38.959  57.218  -1.618  0.00  0.00    +0.222 C 
ATOM     43  ND2 ASN A   2      39.606  56.677  -0.601  0.00  0.00    -0.329 N 
ATOM     44 HD21 ASN A   2      39.197  55.864  -0.098  0.00  0.00    +0.145 HD
ATOM     45 HD22 ASN A   2      40.524  57.064  -0.304  0.00  0.00    +0.145 HD
ATOM     46  OD1 ASN A   2      39.404  58.191  -2.253  0.00  0.00    -0.275 OA
ENDBRANCH  41  42
ENDBRANCH  33  41
ENDBRANCH  29  33
ENDBRANCH  28  30
BRANCH  28  47
ATOM     47  CB  GLU A   3      32.418  55.833  -0.824  0.00  0.00    +0.041 C 
BRANCH  47  48
ATOM     48  CG  GLU A   3      32.793  54.914   0.273  0.00  0.00    +0.116 C 
BRANCH  48  49
ATOM     49  CD  GLU A   3      31.772  54.984   1.358  0.00  0.00    +0.365 C 
ATOM     50  OE2 GLU A   3      31.958  55.786   2.290  0.00  0.00    -0.246 OA
ATOM     51  OE1 GLU A   3      30.763  54.259   1.258  0.00  0.00    -0.246 OA
ENDBRANCH  48  49
ENDBRANCH  47  48
ENDBRANCH  28  47
ENDBRANCH  24  28
ENDBRANCH   1  25
BRANCH   1  52
ATOM     52  CB  GLN A   4      31.664  59.993  -3.691  0.00  0.00    +0.039 C 
BRANCH  52  53
ATOM     53  CG  GLN A   4      30.460  60.245  -2.805  0.00  0.00    +0.087 C 
BRANCH  53  54
ATOM     54  CD  GLN A   4      30.223  59.141  -1.782  0.00  0.00    +0.219 C 
ATOM     55  OE1 GLN A   4      30.982  58.991  -0.816  0.00  0.00    -0.275 OA
ATOM     56  NE2 GLN A   4      29.162  58.357  -1.991  0.00  0.00    -0.329 N 
ATOM     57 HE21 GLN A   4      28.947  57.585  -1.328  0.00  0.00    +0.145 HD
ATOM     58 HE22 GLN A   4      28.550  58.519  -2.816  0.00  0.00    +0.145 HD
ENDBRANCH  53  54
ENDBRANCH  52  53
ENDBRANCH   1  52
TORSDOF 24
REMARK  Name = ../refined-set-2016/1fzo/1fzo_pocket.pdb
REMARK  339 active torsions:
REMARK  status: ('A' for Active; 'I' for Inactive)
REMARK    1  A    between atoms: _1  and  _3
REMARK    2  A    between atoms: _3  and  _4
REMARK    3  A    between atoms: _3  and  _6
REMARK    4  A    between atoms: _6  and  _7
REMARK    5  A    between atoms: _10  and  _12
REMARK    6  A    between atoms: _12  and  _13
REMARK    7  A    between atoms: _12  and  _15
REMARK    8  A    between atoms: _15  and  _16
REMARK    9  A    between atoms: _16  and  _17
REMARK   10  A    between atoms: _17  and  _18
REMARK   11  A    between atoms: _27  and  _29
REMARK   12  A    between atoms: _29  and  _30
REMARK   13  A    between atoms: _29  and  _32
REMARK   14  A    between atoms: _32  and  _33
REMARK   15  A    between atoms: _38  and  _39
REMARK   16  A    between atoms: _41  and  _43
REMARK   17  A    between atoms: _43  and  _44
REMARK   18  A    between atoms: _43  and  _46
REMARK   19  A    between atoms: _46  and  _47
REMARK   20  A    between atoms: _53  and  _55
REMARK   21  A    between atoms: _55  and  _56
REMARK   22  A    between atoms: _55  and  _58
REMARK   23  A    between atoms: _61  and  _63
REMARK   24  A    between atoms: _63  and  _64
REMARK   25  A    between atoms: _63  and  _66
REMARK   26  A    between atoms: _66  and  _67
REMARK   27  A    between atoms: _70  and  _72
REMARK   28  A    between atoms: _72  and  _73
REMARK   29  A    between atoms: _72  and  _75
REMARK   30  A    between atoms: _75  and  _76
REMARK   31  A    between atoms: _82  and  _84
REMARK   32  A    between atoms: _84  and  _85
REMARK   33  A    between atoms: _84  and  _87
REMARK   34  A    between atoms: _87  and  _88
REMARK   35  A    between atoms: _91  and  _93
REMARK   36  A    between atoms: _93  and  _94
REMARK   37  A    between atoms: _93  and  _96
REMARK   38  A    between atoms: _96  and  _97
REMARK   39  A    between atoms: _99  and  _101
REMARK   40  A    between atoms: _101  and  _102
REMARK   41  A    between atoms: _101  and  _104
REMARK   42  A    between atoms: _107  and  _109
REMARK   43  A    between atoms: _109  and  _110
REMARK   44  A    between atoms: _112  and  _114
REMARK   45  A    between atoms: _114  and  _115
REMARK   46  A    between atoms: _114  and  _117
REMARK   47  A    between atoms: _120  and  _122
REMARK   48  A    between atoms: _122  and  _123
REMARK   49  A    between atoms: _122  and  _125
REMARK   50  A    between atoms: _125  and  _126
REMARK   51  A    between atoms: _132  and  _134
REMARK   52  A    between atoms: _134  and  _135
REMARK   53  A    between atoms: _134  and  _137
REMARK   54  A    between atoms: _140  and  _142
REMARK   55  A    between atoms: _142  and  _143
REMARK   56  A    between atoms: _142  and  _145
REMARK   57  A    between atoms: _145  and  _146
REMARK   58  A    between atoms: _151  and  _152
REMARK   59  A    between atoms: _154  and  _156
REMARK   60  A    between atoms: _156  and  _157
REMARK   61  A    between atoms: _156  and  _159
REMARK   62  A    between atoms: _159  and  _160
REMARK   63  A    between atoms: _160  and  _161
REMARK   64  A    between atoms: _163  and  _165
REMARK   65  A    between atoms: _165  and  _166
REMARK   66  A    between atoms: _165  and  _168
REMARK   67  A    between atoms: _168  and  _169
REMARK   68  A    between atoms: _169  and  _170
REMARK   69  A    between atoms: _173  and  _175
REMARK   70  A    between atoms: _175  and  _176
REMARK   71  A    between atoms: _175  and  _178
REMARK   72  A    between atoms: _178  and  _179
REMARK   73  A    between atoms: _179  and  _180
REMARK   74  A    between atoms: _183  and  _185
REMARK   75  A    between atoms: _185  and  _186
REMARK   76  A    between atoms: _185  and  _188
REMARK   77  A    between atoms: _188  and  _189
REMARK   78  A    between atoms: _194  and  _195
REMARK   79  A    between atoms: _197  and  _199
REMARK   80  A    between atoms: _199  and  _200
REMARK   81  A    between atoms: _199  and  _202
REMARK   82  A    between atoms: _202  and  _203
REMARK   83  A    between atoms: _213  and  _215
REMARK   84  A    between atoms: _215  and  _216
REMARK   85  A    between atoms: _215  and  _218
REMARK   86  A    between atoms: _218  and  _219
REMARK   87  A    between atoms: _219  and  _220
REMARK   88  A    between atoms: _223  and  _225
REMARK   89  A    between atoms: _225  and  _226
REMARK   90  A    between atoms: _225  and  _228
REMARK   91  A    between atoms: _228  and  _229
REMARK   92  A    between atoms: _229  and  _230
REMARK   93  A    between atoms: _230  and  _231
REMARK   94  A    between atoms: _240  and  _242
REMARK   95  A    between atoms: _242  and  _243
REMARK   96  A    between atoms: _242  and  _245
REMARK   97  A    between atoms: _245  and  _246
REMARK   98  A    between atoms: _246  and  _247
REMARK   99  A    between atoms: _250  and  _252
REMARK  100  A    between atoms: _252  and  _253
REMARK  101  A    between atoms: _252  and  _255
REMARK  102  A    between atoms: _255  and  _256
REMARK  103  A    between atoms: _259  and  _261
REMARK  104  A    between atoms: _261  and  _262
REMARK  105  A    between atoms: _261  and  _264
REMARK  106  A    between atoms: _264  and  _265
REMARK  107  A    between atoms: _265  and  _266
REMARK  108  A    between atoms: _271  and  _273
REMARK  109  A    between atoms: _273  and  _274
REMARK  110  A    between atoms: _273  and  _276
REMARK  111  A    between atoms: _276  and  _277
REMARK  112  A    between atoms: _277  and  _278
REMARK  113  A    between atoms: _278  and  _279
REMARK  114  A    between atoms: _279  and  _280
REMARK  115  A    between atoms: _284  and  _286
REMARK  116  A    between atoms: _286  and  _287
REMARK  117  A    between atoms: _290  and  _292
REMARK  118  A    between atoms: _292  and  _293
REMARK  119  A    between atoms: _295  and  _297
REMARK  120  A    between atoms: _297  and  _298
REMARK  121  A    between atoms: _297  and  _300
REMARK  122  A    between atoms: _300  and  _301
REMARK  123  A    between atoms: _306  and  _308
REMARK  124  A    between atoms: _308  and  _309
REMARK  125  A    between atoms: _308  and  _311
REMARK  126  A    between atoms: _311  and  _312
REMARK  127  A    between atoms: _312  and  _313
REMARK  128  A    between atoms: _316  and  _318
REMARK  129  A    between atoms: _318  and  _319
REMARK  130  A    between atoms: _318  and  _321
REMARK  131  A    between atoms: _321  and  _322
REMARK  132  A    between atoms: _322  and  _323
REMARK  133  A    between atoms: _328  and  _330
REMARK  134  A    between atoms: _330  and  _331
REMARK  135  A    between atoms: _330  and  _333
REMARK  136  A    between atoms: _333  and  _334
REMARK  137  A    between atoms: _336  and  _338
REMARK  138  A    between atoms: _338  and  _339
REMARK  139  A    between atoms: _338  and  _341
REMARK  140  A    between atoms: _341  and  _342
REMARK  141  A    between atoms: _348  and  _350
REMARK  142  A    between atoms: _350  and  _351
REMARK  143  A    between atoms: _350  and  _353
REMARK  144  A    between atoms: _356  and  _358
REMARK  145  A    between atoms: _358  and  _359
REMARK  146  A    between atoms: _358  and  _361
REMARK  147  A    between atoms: _361  and  _362
REMARK  148  A    between atoms: _365  and  _367
REMARK  149  A    between atoms: _367  and  _368
REMARK  150  A    between atoms: _367  and  _370
REMARK  151  A    between atoms: _370  and  _371
REMARK  152  A    between atoms: _374  and  _376
REMARK  153  A    between atoms: _376  and  _377
REMARK  154  A    between atoms: _376  and  _379
REMARK  155  A    between atoms: _379  and  _380
REMARK  156  A    between atoms: _383  and  _385
REMARK  157  A    between atoms: _385  and  _386
REMARK  158  A    between atoms: _385  and  _388
REMARK  159  A    between atoms: _388  and  _389
REMARK  160  A    between atoms: _392  and  _394
REMARK  161  A    between atoms: _394  and  _395
REMARK  162  A    between atoms: _394  and  _397
REMARK  163  A    between atoms: _397  and  _398
REMARK  164  A    between atoms: _403  and  _404
REMARK  165  A    between atoms: _406  and  _408
REMARK  166  A    between atoms: _408  and  _409
REMARK  167  A    between atoms: _408  and  _411
REMARK  168  A    between atoms: _411  and  _412
REMARK  169  A    between atoms: _417  and  _418
REMARK  170  A    between atoms: _420  and  _422
REMARK  171  A    between atoms: _422  and  _423
REMARK  172  A    between atoms: _422  and  _425
REMARK  173  A    between atoms: _425  and  _426
REMARK  174  A    between atoms: _429  and  _431
REMARK  175  A    between atoms: _431  and  _432
REMARK  176  A    between atoms: _431  and  _434
REMARK  177  A    between atoms: _434  and  _435
REMARK  178  A    between atoms: _435  and  _436
REMARK  179  A    between atoms: _441  and  _443
REMARK  180  A    between atoms: _443  and  _444
REMARK  181  A    between atoms: _443  and  _446
REMARK  182  A    between atoms: _449  and  _451
REMARK  183  A    between atoms: _451  and  _452
REMARK  184  A    between atoms: _451  and  _454
REMARK  185  A    between atoms: _454  and  _455
REMARK  186  A    between atoms: _458  and  _460
REMARK  187  A    between atoms: _460  and  _461
REMARK  188  A    between atoms: _460  and  _463
REMARK  189  A    between atoms: _463  and  _464
REMARK  190  A    between atoms: _466  and  _468
REMARK  191  A    between atoms: _468  and  _469
REMARK  192  A    between atoms: _471  and  _473
REMARK  193  A    between atoms: _473  and  _474
REMARK  194  A    between atoms: _473  and  _476
REMARK  195  A    between atoms: _476  and  _477
REMARK  196  A    between atoms: _477  and  _772
REMARK  197  A    between atoms: _478  and  _480
REMARK  198  A    between atoms: _480  and  _481
REMARK  199  A    between atoms: _480  and  _483
REMARK  200  A    between atoms: _483  and  _484
REMARK  201  A    between atoms: _489  and  _490
REMARK  202  A    between atoms: _492  and  _494
REMARK  203  A    between atoms: _494  and  _495
REMARK  204  A    between atoms: _494  and  _497
REMARK  205  A    between atoms: _497  and  _498
REMARK  206  A    between atoms: _498  and  _499
REMARK  207  A    between atoms: _504  and  _506
REMARK  208  A    between atoms: _506  and  _507
REMARK  209  A    between atoms: _506  and  _509
REMARK  210  A    between atoms: _509  and  _510
REMARK  211  A    between atoms: _510  and  _511
REMARK  212  A    between atoms: _516  and  _518
REMARK  213  A    between atoms: _518  and  _519
REMARK  214  A    between atoms: _518  and  _521
REMARK  215  A    between atoms: _521  and  _522
REMARK  216  A    between atoms: _527  and  _528
REMARK  217  A    between atoms: _530  and  _532
REMARK  218  A    between atoms: _532  and  _533
REMARK  219  A    between atoms: _536  and  _538
REMARK  220  A    between atoms: _538  and  _539
REMARK  221  A    between atoms: _538  and  _541
REMARK  222  A    between atoms: _541  and  _542
REMARK  223  A    between atoms: _547  and  _548
REMARK  224  A    between atoms: _550  and  _552
REMARK  225  A    between atoms: _552  and  _553
REMARK  226  A    between atoms: _552  and  _555
REMARK  227  A    between atoms: _555  and  _556
REMARK  228  A    between atoms: _561  and  _562
REMARK  229  A    between atoms: _564  and  _566
REMARK  230  A    between atoms: _566  and  _567
REMARK  231  A    between atoms: _566  and  _569
REMARK  232  A    between atoms: _569  and  _570
REMARK  233  A    between atoms: _573  and  _575
REMARK  234  A    between atoms: _575  and  _576
REMARK  235  A    between atoms: _575  and  _578
REMARK  236  A    between atoms: _578  and  _579
REMARK  237  A    between atoms: _589  and  _591
REMARK  238  A    between atoms: _591  and  _592
REMARK  239  A    between atoms: _595  and  _597
REMARK  240  A    between atoms: _597  and  _598
REMARK  241  A    between atoms: _601  and  _603
REMARK  242  A    between atoms: _603  and  _604
REMARK  243  A    between atoms: _603  and  _606
REMARK  244  A    between atoms: _606  and  _607
REMARK  245  A    between atoms: _610  and  _612
REMARK  246  A    between atoms: _612  and  _613
REMARK  247  A    between atoms: _612  and  _615
REMARK  248  A    between atoms: _615  and  _616
REMARK  249  A    between atoms: _619  and  _621
REMARK  250  A    between atoms: _621  and  _622
REMARK  251  A    between atoms: _621  and  _624
REMARK  252  A    between atoms: _624  and  _625
REMARK  253  A    between atoms: _628  and  _630
REMARK  254  A    between atoms: _630  and  _631
REMARK  255  A    between atoms: _630  and  _633
REMARK  256  A    between atoms: _633  and  _634
REMARK  257  A    between atoms: _634  and  _635
REMARK  258  A    between atoms: _635  and  _636
REMARK  259  A    between atoms: _636  and  _637
REMARK  260  A    between atoms: _641  and  _643
REMARK  261  A    between atoms: _643  and  _644
REMARK  262  A    between atoms: _643  and  _646
REMARK  263  A    between atoms: _646  and  _647
REMARK  264  A    between atoms: _652  and  _654
REMARK  265  A    between atoms: _654  and  _655
REMARK  266  A    between atoms: _654  and  _657
REMARK  267  A    between atoms: _657  and  _658
REMARK  268  A    between atoms: _658  and  _659
REMARK  269  A    between atoms: _659  and  _660
REMARK  270  A    between atoms: _660  and  _661
REMARK  271  A    between atoms: _665  and  _667
REMARK  272  A    between atoms: _667  and  _668
REMARK  273  A    between atoms: _667  and  _670
REMARK  274  A    between atoms: _670  and  _671
REMARK  275  A    between atoms: _681  and  _683
REMARK  276  A    between atoms: _683  and  _684
REMARK  277  A    between atoms: _687  and  _689
REMARK  278  A    between atoms: _689  and  _690
REMARK  279  A    between atoms: _692  and  _694
REMARK  280  A    between atoms: _694  and  _695
REMARK  281  A    between atoms: _694  and  _697
REMARK  282  A    between atoms: _697  and  _698
REMARK  283  A    between atoms: _698  and  _699
REMARK  284  A    between atoms: _702  and  _704
REMARK  285  A    between atoms: _704  and  _705
REMARK  286  A    between atoms: _708  and  _710
REMARK  287  A    between atoms: _710  and  _711
REMARK  288  A    between atoms: _710  and  _713
REMARK  289  A    between atoms: _713  and  _714
REMARK  290  A    between atoms: _714  and  _715
REMARK  291  A    between atoms: _715  and  _716
REMARK  292  A    between atoms: _725  and  _727
REMARK  293  A    between atoms: _727  and  _728
REMARK  294  A    between atoms: _727  and  _730
REMARK  295  A    between atoms: _730  and  _731
REMARK  296  A    between atoms: _734  and  _736
REMARK  297  A    between atoms: _736  and  _737
REMARK  298  A    between atoms: _736  and  _739
REMARK  299  A    between atoms: _739  and  _740
REMARK  300  A    between atoms: _745  and  _746
REMARK  301  A    between atoms: _748  and  _750
REMARK  302  A    between atoms: _750  and  _751
REMARK  303  A    between atoms: _750  and  _753
REMARK  304  A    between atoms: _753  and  _754
REMARK  305  A    between atoms: _757  and  _759
REMARK  306  A    between atoms: _759  and  _760
REMARK  307  A    between atoms: _759  and  _762
REMARK  308  A    between atoms: _762  and  _763
REMARK  309  A    between atoms: _766  and  _768
REMARK  310  A    between atoms: _768  and  _769
REMARK  311  A    between atoms: _768  and  _771
REMARK  312  A    between atoms: _771  and  _772
REMARK  313  A    between atoms: _773  and  _775
REMARK  314  A    between atoms: _775  and  _776
REMARK  315  A    between atoms: _775  and  _778
REMARK  316  A    between atoms: _781  and  _783
REMARK  317  A    between atoms: _783  and  _784
REMARK  318  A    between atoms: _783  and  _786
REMARK  319  A    between atoms: _786  and  _787
REMARK  320  A    between atoms: _787  and  _788
REMARK  321  A    between atoms: _791  and  _793
REMARK  322  A    between atoms: _793  and  _794
REMARK  323  A    between atoms: _793  and  _796
REMARK  324  A    between atoms: _796  and  _797
REMARK  325  A    between atoms: _807  and  _809
REMARK  326  A    between atoms: _809  and  _810
REMARK  327  A    between atoms: _809  and  _812
REMARK  328  A    between atoms: _812  and  _813
REMARK  329  A    between atoms: _816  and  _818
REMARK  330  A    between atoms: _818  and  _819
REMARK  331  A    between atoms: _818  and  _821
REMARK  332  A    between atoms: _821  and  _822
REMARK  333  A    between atoms: _822  and  _823
REMARK  334  A    between atoms: _823  and  _824
REMARK  335  A    between atoms: _833  and  _835
REMARK  336  A    between atoms: _835  and  _836
REMARK  337  A    between atoms: _835  and  _838
REMARK  338  A    between atoms: _838  and  _839
REMARK  339  A    between atoms: _844  and  _845
REMARK                            x       y       z     vdW  Elec       q    Type
REMARK                         _______ _______ _______ _____ _____    ______ ____
ROOT
ATOM      1  CA  ASP A   2      33.498  54.916 -11.808  0.00  0.00    +0.160 C 
ENDROOT
BRANCH   1   3
ATOM      2  C   VAL A   1      31.518  56.273 -11.298  0.00  0.00    +0.238 C 
ATOM      3  N   ASP A   2      32.699  55.775 -10.926  0.00  0.00    -0.297 N 
ATOM      4  H   ASP A   2      33.065  56.003  -9.980  0.00  0.00    +0.150 HD
ATOM      5  O   VAL A   1      31.001  56.030 -12.396  0.00  0.00    -0.274 OA
BRANCH   2   6
ATOM      6  CA  VAL A   1      30.783  57.151 -10.277  0.00  0.00    +0.145 C 
BRANCH   6   7
ATOM      7  CB  VAL A   1      31.392  58.579 -10.246  0.00  0.00    +0.025 C 
ATOM      8  CG2 VAL A   1      30.515  59.476  -9.381  0.00  0.00    +0.002 C 
ATOM      9  CG1 VAL A   1      31.491  59.159 -11.646  0.00  0.00    +0.002 C 
ENDBRANCH   6   7
BRANCH   6  10
ATOM     10  N   VAL A   1      30.872  56.527  -8.963  0.00  0.00    -0.238 NA
ATOM     11  H   VAL A   1      31.395  57.010  -8.205  0.00  0.00    +0.142 HD
ENDBRANCH   6  10
ENDBRANCH   2   6
ENDBRANCH   1   3
BRANCH   1  12
ATOM     12  C   ASP A   2      32.706  53.681 -12.263  0.00  0.00    +0.241 C 
ATOM     13  N   LEU A   3      32.003  53.052 -11.332  0.00  0.00    -0.298 N 
ATOM     14  H   LEU A   3      32.010  53.397 -10.351  0.00  0.00    +0.150 HD
ATOM     15  O   ASP A   2      32.746  53.293 -13.440  0.00  0.00    -0.273 OA
BRANCH  13  16
ATOM     16  CA  LEU A   3      31.215  51.868 -11.689  0.00  0.00    +0.137 C 
BRANCH  16  17
ATOM     17  C   LEU A   3      30.181  52.216 -12.751  0.00  0.00    +0.227 C 
ATOM     18  O   LEU A   3      29.983  51.459 -13.704  0.00  0.00    -0.286 OA
ENDBRANCH  16  17
BRANCH  16  19
ATOM     19  CB  LEU A   3      30.551  51.280 -10.446  0.00  0.00    +0.028 C 
BRANCH  19  20
ATOM     20  CG  LEU A   3      31.620  50.648  -9.544  0.00  0.00    +0.002 C 
ATOM     21  CD2 LEU A   3      31.100  50.513  -8.122  0.00  0.00    +0.000 C 
ATOM     22  CD1 LEU A   3      32.040  49.288 -10.114  0.00  0.00    +0.000 C 
ENDBRANCH  19  20
ENDBRANCH  16  19
ENDBRANCH  13  16
ENDBRANCH   1  12
BRANCH   1  23
ATOM     23  CB  ASP A   2      34.763  54.420 -11.095  0.00  0.00    +0.143 C 
BRANCH  23  24
ATOM     24  CG  ASP A   2      35.830  55.487 -10.947  0.00  0.00    +0.367 C 
ATOM     25  OD2 ASP A   2      36.769  55.246 -10.158  0.00  0.00    -0.246 OA
ATOM     26  OD1 ASP A   2      35.756  56.537 -11.628  0.00  0.00    -0.246 OA
ENDBRANCH  23  24
ENDBRANCH   1  23
TORSDOF 11
REMARK  Name = ../refined-set-2016/1fzo/1fzo_pocket.pdb
REMARK  339 active torsions:
REMARK  status: ('A' for Active; 'I' for Inactive)
REMARK    1  A    between atoms: _1  and  _3
REMARK    2  A    between atoms: _3  and  _4
REMARK    3  A    between atoms: _3  and  _6
REMARK    4  A    between atoms: _6  and  _7
REMARK    5  A    between atoms: _10  and  _12
REMARK    6  A    between atoms: _12  and  _13
REMARK    7  A    between atoms: _12  and  _15
REMARK    8  A    between atoms: _15  and  _16
REMARK    9  A    between atoms: _16  and  _17
REMARK   10  A    between atoms: _17  and  _18
REMARK   11  A    between atoms: _27  and  _29
REMARK   12  A    between atoms: _29  and  _30
REMARK   13  A    between atoms: _29  and  _32
REMARK   14  A    between atoms: _32  and  _33
REMARK   15  A    between atoms: _38  and  _39
REMARK   16  A    between atoms: _41  and  _43
REMARK   17  A    between atoms: _43  and  _44
REMARK   18  A    between atoms: _43  and  _46
REMARK   19  A    between atoms: _46  and  _47
REMARK   20  A    between atoms: _53  and  _55
REMARK   21  A    between atoms: _55  and  _56
REMARK   22  A    between atoms: _55  and  _58
REMARK   23  A    between atoms: _61  and  _63
REMARK   24  A    between atoms: _63  and  _64
REMARK   25  A    between atoms: _63  and  _66
REMARK   26  A    between atoms: _66  and  _67
REMARK   27  A    between atoms: _70  and  _72
REMARK   28  A    between atoms: _72  and  _73
REMARK   29  A    between atoms: _72  and  _75
REMARK   30  A    between atoms: _75  and  _76
REMARK   31  A    between atoms: _82  and  _84
REMARK   32  A    between atoms: _84  and  _85
REMARK   33  A    between atoms: _84  and  _87
REMARK   34  A    between atoms: _87  and  _88
REMARK   35  A    between atoms: _91  and  _93
REMARK   36  A    between atoms: _93  and  _94
REMARK   37  A    between atoms: _93  and  _96
REMARK   38  A    between atoms: _96  and  _97
REMARK   39  A    between atoms: _99  and  _101
REMARK   40  A    between atoms: _101  and  _102
REMARK   41  A    between atoms: _101  and  _104
REMARK   42  A    between atoms: _107  and  _109
REMARK   43  A    between atoms: _109  and  _110
REMARK   44  A    between atoms: _112  and  _114
REMARK   45  A    between atoms: _114  and  _115
REMARK   46  A    between atoms: _114  and  _117
REMARK   47  A    between atoms: _120  and  _122
REMARK   48  A    between atoms: _122  and  _123
REMARK   49  A    between atoms: _122  and  _125
REMARK   50  A    between atoms: _125  and  _126
REMARK   51  A    between atoms: _132  and  _134
REMARK   52  A    between atoms: _134  and  _135
REMARK   53  A    between atoms: _134  and  _137
REMARK   54  A    between atoms: _140  and  _142
REMARK   55  A    between atoms: _142  and  _143
REMARK   56  A    between atoms: _142  and  _145
REMARK   57  A    between atoms: _145  and  _146
REMARK   58  A    between atoms: _151  and  _152
REMARK   59  A    between atoms: _154  and  _156
REMARK   60  A    between atoms: _156  and  _157
REMARK   61  A    between atoms: _156  and  _159
REMARK   62  A    between atoms: _159  and  _160
REMARK   63  A    between atoms: _160  and  _161
REMARK   64  A    between atoms: _163  and  _165
REMARK   65  A    between atoms: _165  and  _166
REMARK   66  A    between atoms: _165  and  _168
REMARK   67  A    between atoms: _168  and  _169
REMARK   68  A    between atoms: _169  and  _170
REMARK   69  A    between atoms: _173  and  _175
REMARK   70  A    between atoms: _175  and  _176
REMARK   71  A    between atoms: _175  and  _178
REMARK   72  A    between atoms: _178  and  _179
REMARK   73  A    between atoms: _179  and  _180
REMARK   74  A    between atoms: _183  and  _185
REMARK   75  A    between atoms: _185  and  _186
REMARK   76  A    between atoms: _185  and  _188
REMARK   77  A    between atoms: _188  and  _189
REMARK   78  A    between atoms: _194  and  _195
REMARK   79  A    between atoms: _197  and  _199
REMARK   80  A    between atoms: _199  and  _200
REMARK   81  A    between atoms: _199  and  _202
REMARK   82  A    between atoms: _202  and  _203
REMARK   83  A    between atoms: _213  and  _215
REMARK   84  A    between atoms: _215  and  _216
REMARK   85  A    between atoms: _215  and  _218
REMARK   86  A    between atoms: _218  and  _219
REMARK   87  A    between atoms: _219  and  _220
REMARK   88  A    between atoms: _223  and  _225
REMARK   89  A    between atoms: _225  and  _226
REMARK   90  A    between atoms: _225  and  _228
REMARK   91  A    between atoms: _228  and  _229
REMARK   92  A    between atoms: _229  and  _230
REMARK   93  A    between atoms: _230  and  _231
REMARK   94  A    between atoms: _240  and  _242
REMARK   95  A    between atoms: _242  and  _243
REMARK   96  A    between atoms: _242  and  _245
REMARK   97  A    between atoms: _245  and  _246
REMARK   98  A    between atoms: _246  and  _247
REMARK   99  A    between atoms: _250  and  _252
REMARK  100  A    between atoms: _252  and  _253
REMARK  101  A    between atoms: _252  and  _255
REMARK  102  A    between atoms: _255  and  _256
REMARK  103  A    between atoms: _259  and  _261
REMARK  104  A    between atoms: _261  and  _262
REMARK  105  A    between atoms: _261  and  _264
REMARK  106  A    between atoms: _264  and  _265
REMARK  107  A    between atoms: _265  and  _266
REMARK  108  A    between atoms: _271  and  _273
REMARK  109  A    between atoms: _273  and  _274
REMARK  110  A    between atoms: _273  and  _276
REMARK  111  A    between atoms: _276  and  _277
REMARK  112  A    between atoms: _277  and  _278
REMARK  113  A    between atoms: _278  and  _279
REMARK  114  A    between atoms: _279  and  _280
REMARK  115  A    between atoms: _284  and  _286
REMARK  116  A    between atoms: _286  and  _287
REMARK  117  A    between atoms: _290  and  _292
REMARK  118  A    between atoms: _292  and  _293
REMARK  119  A    between atoms: _295  and  _297
REMARK  120  A    between atoms: _297  and  _298
REMARK  121  A    between atoms: _297  and  _300
REMARK  122  A    between atoms: _300  and  _301
REMARK  123  A    between atoms: _306  and  _308
REMARK  124  A    between atoms: _308  and  _309
REMARK  125  A    between atoms: _308  and  _311
REMARK  126  A    between atoms: _311  and  _312
REMARK  127  A    between atoms: _312  and  _313
REMARK  128  A    between atoms: _316  and  _318
REMARK  129  A    between atoms: _318  and  _319
REMARK  130  A    between atoms: _318  and  _321
REMARK  131  A    between atoms: _321  and  _322
REMARK  132  A    between atoms: _322  and  _323
REMARK  133  A    between atoms: _328  and  _330
REMARK  134  A    between atoms: _330  and  _331
REMARK  135  A    between atoms: _330  and  _333
REMARK  136  A    between atoms: _333  and  _334
REMARK  137  A    between atoms: _336  and  _338
REMARK  138  A    between atoms: _338  and  _339
REMARK  139  A    between atoms: _338  and  _341
REMARK  140  A    between atoms: _341  and  _342
REMARK  141  A    between atoms: _348  and  _350
REMARK  142  A    between atoms: _350  and  _351
REMARK  143  A    between atoms: _350  and  _353
REMARK  144  A    between atoms: _356  and  _358
REMARK  145  A    between atoms: _358  and  _359
REMARK  146  A    between atoms: _358  and  _361
REMARK  147  A    between atoms: _361  and  _362
REMARK  148  A    between atoms: _365  and  _367
REMARK  149  A    between atoms: _367  and  _368
REMARK  150  A    between atoms: _367  and  _370
REMARK  151  A    between atoms: _370  and  _371
REMARK  152  A    between atoms: _374  and  _376
REMARK  153  A    between atoms: _376  and  _377
REMARK  154  A    between atoms: _376  and  _379
REMARK  155  A    between atoms: _379  and  _380
REMARK  156  A    between atoms: _383  and  _385
REMARK  157  A    between atoms: _385  and  _386
REMARK  158  A    between atoms: _385  and  _388
REMARK  159  A    between atoms: _388  and  _389
REMARK  160  A    between atoms: _392  and  _394
REMARK  161  A    between atoms: _394  and  _395
REMARK  162  A    between atoms: _394  and  _397
REMARK  163  A    between atoms: _397  and  _398
REMARK  164  A    between atoms: _403  and  _404
REMARK  165  A    between atoms: _406  and  _408
REMARK  166  A    between atoms: _408  and  _409
REMARK  167  A    between atoms: _408  and  _411
REMARK  168  A    between atoms: _411  and  _412
REMARK  169  A    between atoms: _417  and  _418
REMARK  170  A    between atoms: _420  and  _422
REMARK  171  A    between atoms: _422  and  _423
REMARK  172  A    between atoms: _422  and  _425
REMARK  173  A    between atoms: _425  and  _426
REMARK  174  A    between atoms: _429  and  _431
REMARK  175  A    between atoms: _431  and  _432
REMARK  176  A    between atoms: _431  and  _434
REMARK  177  A    between atoms: _434  and  _435
REMARK  178  A    between atoms: _435  and  _436
REMARK  179  A    between atoms: _441  and  _443
REMARK  180  A    between atoms: _443  and  _444
REMARK  181  A    between atoms: _443  and  _446
REMARK  182  A    between atoms: _449  and  _451
REMARK  183  A    between atoms: _451  and  _452
REMARK  184  A    between atoms: _451  and  _454
REMARK  185  A    between atoms: _454  and  _455
REMARK  186  A    between atoms: _458  and  _460
REMARK  187  A    between atoms: _460  and  _461
REMARK  188  A    between atoms: _460  and  _463
REMARK  189  A    between atoms: _463  and  _464
REMARK  190  A    between atoms: _466  and  _468
REMARK  191  A    between atoms: _468  and  _469
REMARK  192  A    between atoms: _471  and  _473
REMARK  193  A    between atoms: _473  and  _474
REMARK  194  A    between atoms: _473  and  _476
REMARK  195  A    between atoms: _476  and  _477
REMARK  196  A    between atoms: _477  and  _772
REMARK  197  A    between atoms: _478  and  _480
REMARK  198  A    between atoms: _480  and  _481
REMARK  199  A    between atoms: _480  and  _483
REMARK  200  A    between atoms: _483  and  _484
REMARK  201  A    between atoms: _489  and  _490
REMARK  202  A    between atoms: _492  and  _494
REMARK  203  A    between atoms: _494  and  _495
REMARK  204  A    between atoms: _494  and  _497
REMARK  205  A    between atoms: _497  and  _498
REMARK  206  A    between atoms: _498  and  _499
REMARK  207  A    between atoms: _504  and  _506
REMARK  208  A    between atoms: _506  and  _507
REMARK  209  A    between atoms: _506  and  _509
REMARK  210  A    between atoms: _509  and  _510
REMARK  211  A    between atoms: _510  and  _511
REMARK  212  A    between atoms: _516  and  _518
REMARK  213  A    between atoms: _518  and  _519
REMARK  214  A    between atoms: _518  and  _521
REMARK  215  A    between atoms: _521  and  _522
REMARK  216  A    between atoms: _527  and  _528
REMARK  217  A    between atoms: _530  and  _532
REMARK  218  A    between atoms: _532  and  _533
REMARK  219  A    between atoms: _536  and  _538
REMARK  220  A    between atoms: _538  and  _539
REMARK  221  A    between atoms: _538  and  _541
REMARK  222  A    between atoms: _541  and  _542
REMARK  223  A    between atoms: _547  and  _548
REMARK  224  A    between atoms: _550  and  _552
REMARK  225  A    between atoms: _552  and  _553
REMARK  226  A    between atoms: _552  and  _555
REMARK  227  A    between atoms: _555  and  _556
REMARK  228  A    between atoms: _561  and  _562
REMARK  229  A    between atoms: _564  and  _566
REMARK  230  A    between atoms: _566  and  _567
REMARK  231  A    between atoms: _566  and  _569
REMARK  232  A    between atoms: _569  and  _570
REMARK  233  A    between atoms: _573  and  _575
REMARK  234  A    between atoms: _575  and  _576
REMARK  235  A    between atoms: _575  and  _578
REMARK  236  A    between atoms: _578  and  _579
REMARK  237  A    between atoms: _589  and  _591
REMARK  238  A    between atoms: _591  and  _592
REMARK  239  A    between atoms: _595  and  _597
REMARK  240  A    between atoms: _597  and  _598
REMARK  241  A    between atoms: _601  and  _603
REMARK  242  A    between atoms: _603  and  _604
REMARK  243  A    between atoms: _603  and  _606
REMARK  244  A    between atoms: _606  and  _607
REMARK  245  A    between atoms: _610  and  _612
REMARK  246  A    between atoms: _612  and  _613
REMARK  247  A    between atoms: _612  and  _615
REMARK  248  A    between atoms: _615  and  _616
REMARK  249  A    between atoms: _619  and  _621
REMARK  250  A    between atoms: _621  and  _622
REMARK  251  A    between atoms: _621  and  _624
REMARK  252  A    between atoms: _624  and  _625
REMARK  253  A    between atoms: _628  and  _630
REMARK  254  A    between atoms: _630  and  _631
REMARK  255  A    between atoms: _630  and  _633
REMARK  256  A    between atoms: _633  and  _634
REMARK  257  A    between atoms: _634  and  _635
REMARK  258  A    between atoms: _635  and  _636
REMARK  259  A    between atoms: _636  and  _637
REMARK  260  A    between atoms: _641  and  _643
REMARK  261  A    between atoms: _643  and  _644
REMARK  262  A    between atoms: _643  and  _646
REMARK  263  A    between atoms: _646  and  _647
REMARK  264  A    between atoms: _652  and  _654
REMARK  265  A    between atoms: _654  and  _655
REMARK  266  A    between atoms: _654  and  _657
REMARK  267  A    between atoms: _657  and  _658
REMARK  268  A    between atoms: _658  and  _659
REMARK  269  A    between atoms: _659  and  _660
REMARK  270  A    between atoms: _660  and  _661
REMARK  271  A    between atoms: _665  and  _667
REMARK  272  A    between atoms: _667  and  _668
REMARK  273  A    between atoms: _667  and  _670
REMARK  274  A    between atoms: _670  and  _671
REMARK  275  A    between atoms: _681  and  _683
REMARK  276  A    between atoms: _683  and  _684
REMARK  277  A    between atoms: _687  and  _689
REMARK  278  A    between atoms: _689  and  _690
REMARK  279  A    between atoms: _692  and  _694
REMARK  280  A    between atoms: _694  and  _695
REMARK  281  A    between atoms: _694  and  _697
REMARK  282  A    between atoms: _697  and  _698
REMARK  283  A    between atoms: _698  and  _699
REMARK  284  A    between atoms: _702  and  _704
REMARK  285  A    between atoms: _704  and  _705
REMARK  286  A    between atoms: _708  and  _710
REMARK  287  A    between atoms: _710  and  _711
REMARK  288  A    between atoms: _710  and  _713
REMARK  289  A    between atoms: _713  and  _714
REMARK  290  A    between atoms: _714  and  _715
REMARK  291  A    between atoms: _715  and  _716
REMARK  292  A    between atoms: _725  and  _727
REMARK  293  A    between atoms: _727  and  _728
REMARK  294  A    between atoms: _727  and  _730
REMARK  295  A    between atoms: _730  and  _731
REMARK  296  A    between atoms: _734  and  _736
REMARK  297  A    between atoms: _736  and  _737
REMARK  298  A    between atoms: _736  and  _739
REMARK  299  A    between atoms: _739  and  _740
REMARK  300  A    between atoms: _745  and  _746
REMARK  301  A    between atoms: _748  and  _750
REMARK  302  A    between atoms: _750  and  _751
REMARK  303  A    between atoms: _750  and  _753
REMARK  304  A    between atoms: _753  and  _754
REMARK  305  A    between atoms: _757  and  _759
REMARK  306  A    between atoms: _759  and  _760
REMARK  307  A    between atoms: _759  and  _762
REMARK  308  A    between atoms: _762  and  _763
REMARK  309  A    between atoms: _766  and  _768
REMARK  310  A    between atoms: _768  and  _769
REMARK  311  A    between atoms: _768  and  _771
REMARK  312  A    between atoms: _771  and  _772
REMARK  313  A    between atoms: _773  and  _775
REMARK  314  A    between atoms: _775  and  _776
REMARK  315  A    between atoms: _775  and  _778
REMARK  316  A    between atoms: _781  and  _783
REMARK  317  A    between atoms: _783  and  _784
REMARK  318  A    between atoms: _783  and  _786
REMARK  319  A    between atoms: _786  and  _787
REMARK  320  A    between atoms: _787  and  _788
REMARK  321  A    between atoms: _791  and  _793
REMARK  322  A    between atoms: _793  and  _794
REMARK  323  A    between atoms: _793  and  _796
REMARK  324  A    between atoms: _796  and  _797
REMARK  325  A    between atoms: _807  and  _809
REMARK  326  A    between atoms: _809  and  _810
REMARK  327  A    between atoms: _809  and  _812
REMARK  328  A    between atoms: _812  and  _813
REMARK  329  A    between atoms: _816  and  _818
REMARK  330  A    between atoms: _818  and  _819
REMARK  331  A    between atoms: _818  and  _821
REMARK  332  A    between atoms: _821  and  _822
REMARK  333  A    between atoms: _822  and  _823
REMARK  334  A    between atoms: _823  and  _824
REMARK  335  A    between atoms: _833  and  _835
REMARK  336  A    between atoms: _835  and  _836
REMARK  337  A    between atoms: _835  and  _838
REMARK  338  A    between atoms: _838  and  _839
REMARK  339  A    between atoms: _844  and  _845
REMARK                            x       y       z     vdW  Elec       q    Type
REMARK                         _______ _______ _______ _____ _____    ______ ____
ROOT
ATOM      1  C   THR A   1      31.450  53.982 -16.935  0.00  0.00    +0.241 C 
ATOM      2  N   LEU A   2      32.000  52.996 -16.234  0.00  0.00    -0.298 N 
ATOM      3  H   LEU A   2      32.110  53.100 -15.205  0.00  0.00    +0.150 HD
ATOM      4  O   THR A   1      31.292  53.934 -18.173  0.00  0.00    -0.274 OA
ENDROOT
BRANCH   1   5
ATOM      5  CA  THR A   1      31.032  55.200 -16.128  0.00  0.00    +0.172 C 
BRANCH   5   6
ATOM      6  N   THR A   1      30.310  54.819 -14.918  0.00  0.00    -0.236 NA
ATOM      7  H   THR A   1      30.674  55.130 -13.995  0.00  0.00    +0.142 HD
ENDBRANCH   5   6
BRANCH   5   8
ATOM      8  CB  THR A   1      32.288  56.008 -15.766  0.00  0.00    +0.135 C 
ATOM      9  CG2 THR A   1      33.059  56.394 -17.017  0.00  0.00    +0.034 C 
BRANCH   8  10
ATOM     10  OG1 THR A   1      31.902  57.197 -15.054  0.00  0.00    -0.383 OA
ATOM     11  HG1 THR A   1      32.711  57.718 -14.821  0.00  0.00    +0.210 HD
ENDBRANCH   8  10
ENDBRANCH   5   8
ENDBRANCH   1   5
BRANCH   2  12
ATOM     12  CA  LEU A   2      32.450  51.776 -16.881  0.00  0.00    +0.137 C 
BRANCH  12  13
ATOM     13  C   LEU A   2      31.291  51.008 -17.526  0.00  0.00    +0.227 C 
ATOM     14  O   LEU A   2      31.495  50.311 -18.516  0.00  0.00    -0.286 OA
ENDBRANCH  12  13
BRANCH  12  15
ATOM     15  CB  LEU A   2      33.223  50.921 -15.873  0.00  0.00    +0.028 C 
BRANCH  15  16
ATOM     16  CG  LEU A   2      34.759  50.963 -16.027  0.00  0.00    +0.002 C 
ATOM     17  CD2 LEU A   2      35.418  50.594 -14.720  0.00  0.00    +0.000 C 
ATOM     18  CD1 LEU A   2      35.232  52.305 -16.515  0.00  0.00    +0.000 C 
ENDBRANCH  15  16
ENDBRANCH  12  15
ENDBRANCH   2  12
TORSDOF 8
REMARK  Name = ../refined-set-2016/1fzo/1fzo_pocket.pdb
REMARK  339 active torsions:
REMARK  status: ('A' for Active; 'I' for Inactive)
REMARK    1  A    between atoms: _1  and  _3
REMARK    2  A    between atoms: _3  and  _4
REMARK    3  A    between atoms: _3  and  _6
REMARK    4  A    between atoms: _6  and  _7
REMARK    5  A    between atoms: _10  and  _12
REMARK    6  A    between atoms: _12  and  _13
REMARK    7  A    between atoms: _12  and  _15
REMARK    8  A    between atoms: _15  and  _16
REMARK    9  A    between atoms: _16  and  _17
REMARK   10  A    between atoms: _17  and  _18
REMARK   11  A    between atoms: _27  and  _29
REMARK   12  A    between atoms: _29  and  _30
REMARK   13  A    between atoms: _29  and  _32
REMARK   14  A    between atoms: _32  and  _33
REMARK   15  A    between atoms: _38  and  _39
REMARK   16  A    between atoms: _41  and  _43
REMARK   17  A    between atoms: _43  and  _44
REMARK   18  A    between atoms: _43  and  _46
REMARK   19  A    between atoms: _46  and  _47
REMARK   20  A    between atoms: _53  and  _55
REMARK   21  A    between atoms: _55  and  _56
REMARK   22  A    between atoms: _55  and  _58
REMARK   23  A    between atoms: _61  and  _63
REMARK   24  A    between atoms: _63  and  _64
REMARK   25  A    between atoms: _63  and  _66
REMARK   26  A    between atoms: _66  and  _67
REMARK   27  A    between atoms: _70  and  _72
REMARK   28  A    between atoms: _72  and  _73
REMARK   29  A    between atoms: _72  and  _75
REMARK   30  A    between atoms: _75  and  _76
REMARK   31  A    between atoms: _82  and  _84
REMARK   32  A    between atoms: _84  and  _85
REMARK   33  A    between atoms: _84  and  _87
REMARK   34  A    between atoms: _87  and  _88
REMARK   35  A    between atoms: _91  and  _93
REMARK   36  A    between atoms: _93  and  _94
REMARK   37  A    between atoms: _93  and  _96
REMARK   38  A    between atoms: _96  and  _97
REMARK   39  A    between atoms: _99  and  _101
REMARK   40  A    between atoms: _101  and  _102
REMARK   41  A    between atoms: _101  and  _104
REMARK   42  A    between atoms: _107  and  _109
REMARK   43  A    between atoms: _109  and  _110
REMARK   44  A    between atoms: _112  and  _114
REMARK   45  A    between atoms: _114  and  _115
REMARK   46  A    between atoms: _114  and  _117
REMARK   47  A    between atoms: _120  and  _122
REMARK   48  A    between atoms: _122  and  _123
REMARK   49  A    between atoms: _122  and  _125
REMARK   50  A    between atoms: _125  and  _126
REMARK   51  A    between atoms: _132  and  _134
REMARK   52  A    between atoms: _134  and  _135
REMARK   53  A    between atoms: _134  and  _137
REMARK   54  A    between atoms: _140  and  _142
REMARK   55  A    between atoms: _142  and  _143
REMARK   56  A    between atoms: _142  and  _145
REMARK   57  A    between atoms: _145  and  _146
REMARK   58  A    between atoms: _151  and  _152
REMARK   59  A    between atoms: _154  and  _156
REMARK   60  A    between atoms: _156  and  _157
REMARK   61  A    between atoms: _156  and  _159
REMARK   62  A    between atoms: _159  and  _160
REMARK   63  A    between atoms: _160  and  _161
REMARK   64  A    between atoms: _163  and  _165
REMARK   65  A    between atoms: _165  and  _166
REMARK   66  A    between atoms: _165  and  _168
REMARK   67  A    between atoms: _168  and  _169
REMARK   68  A    between atoms: _169  and  _170
REMARK   69  A    between atoms: _173  and  _175
REMARK   70  A    between atoms: _175  and  _176
REMARK   71  A    between atoms: _175  and  _178
REMARK   72  A    between atoms: _178  and  _179
REMARK   73  A    between atoms: _179  and  _180
REMARK   74  A    between atoms: _183  and  _185
REMARK   75  A    between atoms: _185  and  _186
REMARK   76  A    between atoms: _185  and  _188
REMARK   77  A    between atoms: _188  and  _189
REMARK   78  A    between atoms: _194  and  _195
REMARK   79  A    between atoms: _197  and  _199
REMARK   80  A    between atoms: _199  and  _200
REMARK   81  A    between atoms: _199  and  _202
REMARK   82  A    between atoms: _202  and  _203
REMARK   83  A    between atoms: _213  and  _215
REMARK   84  A    between atoms: _215  and  _216
REMARK   85  A    between atoms: _215  and  _218
REMARK   86  A    between atoms: _218  and  _219
REMARK   87  A    between atoms: _219  and  _220
REMARK   88  A    between atoms: _223  and  _225
REMARK   89  A    between atoms: _225  and  _226
REMARK   90  A    between atoms: _225  and  _228
REMARK   91  A    between atoms: _228  and  _229
REMARK   92  A    between atoms: _229  and  _230
REMARK   93  A    between atoms: _230  and  _231
REMARK   94  A    between atoms: _240  and  _242
REMARK   95  A    between atoms: _242  and  _243
REMARK   96  A    between atoms: _242  and  _245
REMARK   97  A    between atoms: _245  and  _246
REMARK   98  A    between atoms: _246  and  _247
REMARK   99  A    between atoms: _250  and  _252
REMARK  100  A    between atoms: _252  and  _253
REMARK  101  A    between atoms: _252  and  _255
REMARK  102  A    between atoms: _255  and  _256
REMARK  103  A    between atoms: _259  and  _261
REMARK  104  A    between atoms: _261  and  _262
REMARK  105  A    between atoms: _261  and  _264
REMARK  106  A    between atoms: _264  and  _265
REMARK  107  A    between atoms: _265  and  _266
REMARK  108  A    between atoms: _271  and  _273
REMARK  109  A    between atoms: _273  and  _274
REMARK  110  A    between atoms: _273  and  _276
REMARK  111  A    between atoms: _276  and  _277
REMARK  112  A    between atoms: _277  and  _278
REMARK  113  A    between atoms: _278  and  _279
REMARK  114  A    between atoms: _279  and  _280
REMARK  115  A    between atoms: _284  and  _286
REMARK  116  A    between atoms: _286  and  _287
REMARK  117  A    between atoms: _290  and  _292
REMARK  118  A    between atoms: _292  and  _293
REMARK  119  A    between atoms: _295  and  _297
REMARK  120  A    between atoms: _297  and  _298
REMARK  121  A    between atoms: _297  and  _300
REMARK  122  A    between atoms: _300  and  _301
REMARK  123  A    between atoms: _306  and  _308
REMARK  124  A    between atoms: _308  and  _309
REMARK  125  A    between atoms: _308  and  _311
REMARK  126  A    between atoms: _311  and  _312
REMARK  127  A    between atoms: _312  and  _313
REMARK  128  A    between atoms: _316  and  _318
REMARK  129  A    between atoms: _318  and  _319
REMARK  130  A    between atoms: _318  and  _321
REMARK  131  A    between atoms: _321  and  _322
REMARK  132  A    between atoms: _322  and  _323
REMARK  133  A    between atoms: _328  and  _330
REMARK  134  A    between atoms: _330  and  _331
REMARK  135  A    between atoms: _330  and  _333
REMARK  136  A    between atoms: _333  and  _334
REMARK  137  A    between atoms: _336  and  _338
REMARK  138  A    between atoms: _338  and  _339
REMARK  139  A    between atoms: _338  and  _341
REMARK  140  A    between atoms: _341  and  _342
REMARK  141  A    between atoms: _348  and  _350
REMARK  142  A    between atoms: _350  and  _351
REMARK  143  A    between atoms: _350  and  _353
REMARK  144  A    between atoms: _356  and  _358
REMARK  145  A    between atoms: _358  and  _359
REMARK  146  A    between atoms: _358  and  _361
REMARK  147  A    between atoms: _361  and  _362
REMARK  148  A    between atoms: _365  and  _367
REMARK  149  A    between atoms: _367  and  _368
REMARK  150  A    between atoms: _367  and  _370
REMARK  151  A    between atoms: _370  and  _371
REMARK  152  A    between atoms: _374  and  _376
REMARK  153  A    between atoms: _376  and  _377
REMARK  154  A    between atoms: _376  and  _379
REMARK  155  A    between atoms: _379  and  _380
REMARK  156  A    between atoms: _383  and  _385
REMARK  157  A    between atoms: _385  and  _386
REMARK  158  A    between atoms: _385  and  _388
REMARK  159  A    between atoms: _388  and  _389
REMARK  160  A    between atoms: _392  and  _394
REMARK  161  A    between atoms: _394  and  _395
REMARK  162  A    between atoms: _394  and  _397
REMARK  163  A    between atoms: _397  and  _398
REMARK  164  A    between atoms: _403  and  _404
REMARK  165  A    between atoms: _406  and  _408
REMARK  166  A    between atoms: _408  and  _409
REMARK  167  A    between atoms: _408  and  _411
REMARK  168  A    between atoms: _411  and  _412
REMARK  169  A    between atoms: _417  and  _418
REMARK  170  A    between atoms: _420  and  _422
REMARK  171  A    between atoms: _422  and  _423
REMARK  172  A    between atoms: _422  and  _425
REMARK  173  A    between atoms: _425  and  _426
REMARK  174  A    between atoms: _429  and  _431
REMARK  175  A    between atoms: _431  and  _432
REMARK  176  A    between atoms: _431  and  _434
REMARK  177  A    between atoms: _434  and  _435
REMARK  178  A    between atoms: _435  and  _436
REMARK  179  A    between atoms: _441  and  _443
REMARK  180  A    between atoms: _443  and  _444
REMARK  181  A    between atoms: _443  and  _446
REMARK  182  A    between atoms: _449  and  _451
REMARK  183  A    between atoms: _451  and  _452
REMARK  184  A    between atoms: _451  and  _454
REMARK  185  A    between atoms: _454  and  _455
REMARK  186  A    between atoms: _458  and  _460
REMARK  187  A    between atoms: _460  and  _461
REMARK  188  A    between atoms: _460  and  _463
REMARK  189  A    between atoms: _463  and  _464
REMARK  190  A    between atoms: _466  and  _468
REMARK  191  A    between atoms: _468  and  _469
REMARK  192  A    between atoms: _471  and  _473
REMARK  193  A    between atoms: _473  and  _474
REMARK  194  A    between atoms: _473  and  _476
REMARK  195  A    between atoms: _476  and  _477
REMARK  196  A    between atoms: _477  and  _772
REMARK  197  A    between atoms: _478  and  _480
REMARK  198  A    between atoms: _480  and  _481
REMARK  199  A    between atoms: _480  and  _483
REMARK  200  A    between atoms: _483  and  _484
REMARK  201  A    between atoms: _489  and  _490
REMARK  202  A    between atoms: _492  and  _494
REMARK  203  A    between atoms: _494  and  _495
REMARK  204  A    between atoms: _494  and  _497
REMARK  205  A    between atoms: _497  and  _498
REMARK  206  A    between atoms: _498  and  _499
REMARK  207  A    between atoms: _504  and  _506
REMARK  208  A    between atoms: _506  and  _507
REMARK  209  A    between atoms: _506  and  _509
REMARK  210  A    between atoms: _509  and  _510
REMARK  211  A    between atoms: _510  and  _511
REMARK  212  A    between atoms: _516  and  _518
REMARK  213  A    between atoms: _518  and  _519
REMARK  214  A    between atoms: _518  and  _521
REMARK  215  A    between atoms: _521  and  _522
REMARK  216  A    between atoms: _527  and  _528
REMARK  217  A    between atoms: _530  and  _532
REMARK  218  A    between atoms: _532  and  _533
REMARK  219  A    between atoms: _536  and  _538
REMARK  220  A    between atoms: _538  and  _539
REMARK  221  A    between atoms: _538  and  _541
REMARK  222  A    between atoms: _541  and  _542
REMARK  223  A    between atoms: _547  and  _548
REMARK  224  A    between atoms: _550  and  _552
REMARK  225  A    between atoms: _552  and  _553
REMARK  226  A    between atoms: _552  and  _555
REMARK  227  A    between atoms: _555  and  _556
REMARK  228  A    between atoms: _561  and  _562
REMARK  229  A    between atoms: _564  and  _566
REMARK  230  A    between atoms: _566  and  _567
REMARK  231  A    between atoms: _566  and  _569
REMARK  232  A    between atoms: _569  and  _570
REMARK  233  A    between atoms: _573  and  _575
REMARK  234  A    between atoms: _575  and  _576
REMARK  235  A    between atoms: _575  and  _578
REMARK  236  A    between atoms: _578  and  _579
REMARK  237  A    between atoms: _589  and  _591
REMARK  238  A    between atoms: _591  and  _592
REMARK  239  A    between atoms: _595  and  _597
REMARK  240  A    between atoms: _597  and  _598
REMARK  241  A    between atoms: _601  and  _603
REMARK  242  A    between atoms: _603  and  _604
REMARK  243  A    between atoms: _603  and  _606
REMARK  244  A    between atoms: _606  and  _607
REMARK  245  A    between atoms: _610  and  _612
REMARK  246  A    between atoms: _612  and  _613
REMARK  247  A    between atoms: _612  and  _615
REMARK  248  A    between atoms: _615  and  _616
REMARK  249  A    between atoms: _619  and  _621
REMARK  250  A    between atoms: _621  and  _622
REMARK  251  A    between atoms: _621  and  _624
REMARK  252  A    between atoms: _624  and  _625
REMARK  253  A    between atoms: _628  and  _630
REMARK  254  A    between atoms: _630  and  _631
REMARK  255  A    between atoms: _630  and  _633
REMARK  256  A    between atoms: _633  and  _634
REMARK  257  A    between atoms: _634  and  _635
REMARK  258  A    between atoms: _635  and  _636
REMARK  259  A    between atoms: _636  and  _637
REMARK  260  A    between atoms: _641  and  _643
REMARK  261  A    between atoms: _643  and  _644
REMARK  262  A    between atoms: _643  and  _646
REMARK  263  A    between atoms: _646  and  _647
REMARK  264  A    between atoms: _652  and  _654
REMARK  265  A    between atoms: _654  and  _655
REMARK  266  A    between atoms: _654  and  _657
REMARK  267  A    between atoms: _657  and  _658
REMARK  268  A    between atoms: _658  and  _659
REMARK  269  A    between atoms: _659  and  _660
REMARK  270  A    between atoms: _660  and  _661
REMARK  271  A    between atoms: _665  and  _667
REMARK  272  A    between atoms: _667  and  _668
REMARK  273  A    between atoms: _667  and  _670
REMARK  274  A    between atoms: _670  and  _671
REMARK  275  A    between atoms: _681  and  _683
REMARK  276  A    between atoms: _683  and  _684
REMARK  277  A    between atoms: _687  and  _689
REMARK  278  A    between atoms: _689  and  _690
REMARK  279  A    between atoms: _692  and  _694
REMARK  280  A    between atoms: _694  and  _695
REMARK  281  A    between atoms: _694  and  _697
REMARK  282  A    between atoms: _697  and  _698
REMARK  283  A    between atoms: _698  and  _699
REMARK  284  A    between atoms: _702  and  _704
REMARK  285  A    between atoms: _704  and  _705
REMARK  286  A    between atoms: _708  and  _710
REMARK  287  A    between atoms: _710  and  _711
REMARK  288  A    between atoms: _710  and  _713
REMARK  289  A    between atoms: _713  and  _714
REMARK  290  A    between atoms: _714  and  _715
REMARK  291  A    between atoms: _715  and  _716
REMARK  292  A    between atoms: _725  and  _727
REMARK  293  A    between atoms: _727  and  _728
REMARK  294  A    between atoms: _727  and  _730
REMARK  295  A    between atoms: _730  and  _731
REMARK  296  A    between atoms: _734  and  _736
REMARK  297  A    between atoms: _736  and  _737
REMARK  298  A    between atoms: _736  and  _739
REMARK  299  A    between atoms: _739  and  _740
REMARK  300  A    between atoms: _745  and  _746
REMARK  301  A    between atoms: _748  and  _750
REMARK  302  A    between atoms: _750  and  _751
REMARK  303  A    between atoms: _750  and  _753
REMARK  304  A    between atoms: _753  and  _754
REMARK  305  A    between atoms: _757  and  _759
REMARK  306  A    between atoms: _759  and  _760
REMARK  307  A    between atoms: _759  and  _762
REMARK  308  A    between atoms: _762  and  _763
REMARK  309  A    between atoms: _766  and  _768
REMARK  310  A    between atoms: _768  and  _769
REMARK  311  A    between atoms: _768  and  _771
REMARK  312  A    between atoms: _771  and  _772
REMARK  313  A    between atoms: _773  and  _775
REMARK  314  A    between atoms: _775  and  _776
REMARK  315  A    between atoms: _775  and  _778
REMARK  316  A    between atoms: _781  and  _783
REMARK  317  A    between atoms: _783  and  _784
REMARK  318  A    between atoms: _783  and  _786
REMARK  319  A    between atoms: _786  and  _787
REMARK  320  A    between atoms: _787  and  _788
REMARK  321  A    between atoms: _791  and  _793
REMARK  322  A    between atoms: _793  and  _794
REMARK  323  A    between atoms: _793  and  _796
REMARK  324  A    between atoms: _796  and  _797
REMARK  325  A    between atoms: _807  and  _809
REMARK  326  A    between atoms: _809  and  _810
REMARK  327  A    between atoms: _809  and  _812
REMARK  328  A    between atoms: _812  and  _813
REMARK  329  A    between atoms: _816  and  _818
REMARK  330  A    between atoms: _818  and  _819
REMARK  331  A    between atoms: _818  and  _821
REMARK  332  A    between atoms: _821  and  _822
REMARK  333  A    between atoms: _822  and  _823
REMARK  334  A    between atoms: _823  and  _824
REMARK  335  A    between atoms: _833  and  _835
REMARK  336  A    between atoms: _835  and  _836
REMARK  337  A    between atoms: _835  and  _838
REMARK  338  A    between atoms: _838  and  _839
REMARK  339  A    between atoms: _844  and  _845
REMARK                            x       y       z     vdW  Elec       q    Type
REMARK                         _______ _______ _______ _____ _____    ______ ____
ROOT
ATOM      1  C   TYR A   1      32.279  51.002 -22.263  0.00  0.00    +0.239 C 
ATOM      2  N   TYR A   2      31.797  50.050 -21.473  0.00  0.00    -0.298 N 
ATOM      3  H   TYR A   2      31.488  50.297 -20.511  0.00  0.00    +0.150 HD
ATOM      4  O   TYR A   1      32.640  50.800 -23.418  0.00  0.00    -0.274 OA
ENDROOT
BRANCH   1   5
ATOM      5  CA  TYR A   1      32.391  52.391 -21.644  0.00  0.00    +0.149 C 
BRANCH   5   6
ATOM      6  N   TYR A   1      31.238  52.729 -20.826  0.00  0.00    -0.238 NA
ATOM      7  H   TYR A   1      31.377  52.992 -19.830  0.00  0.00    +0.142 HD
ENDBRANCH   5   6
BRANCH   5   8
ATOM      8  CB  TYR A   1      33.670  52.407 -20.815  0.00  0.00    +0.053 C 
BRANCH   8   9
ATOM      9  CG  TYR A   1      34.186  53.765 -20.396  0.00  0.00    -0.020 A 
ATOM     10  CD2 TYR A   1      35.312  53.855 -19.582  0.00  0.00    -0.001 A 
ATOM     11  CE2 TYR A   1      35.818  55.072 -19.172  0.00  0.00    +0.036 A 
ATOM     12  CZ  TYR A   1      35.194  56.237 -19.564  0.00  0.00    +0.134 A 
ATOM     13  CE1 TYR A   1      34.060  56.193 -20.380  0.00  0.00    +0.036 A 
ATOM     14  CD1 TYR A   1      33.560  54.952 -20.798  0.00  0.00    -0.001 A 
BRANCH  12  15
ATOM     15  OH  TYR A   1      35.716  57.429 -19.107  0.00  0.00    -0.506 OA
ATOM     16  HH  TYR A   1      35.692  57.441 -18.117  0.00  0.00    +0.292 HD
ENDBRANCH  12  15
ENDBRANCH   8   9
ENDBRANCH   5   8
ENDBRANCH   1   5
BRANCH   2  17
ATOM     17  CA  TYR A   2      31.690  48.660 -21.923  0.00  0.00    +0.141 C 
BRANCH  17  18
ATOM     18  C   TYR A   2      30.304  48.252 -22.414  0.00  0.00    +0.227 C 
ATOM     19  O   TYR A   2      30.090  47.098 -22.795  0.00  0.00    -0.286 OA
ENDBRANCH  17  18
BRANCH  17  20
ATOM     20  CB  TYR A   2      32.149  47.728 -20.785  0.00  0.00    +0.054 C 
BRANCH  20  21
ATOM     21  CG  TYR A   2      33.637  47.797 -20.510  0.00  0.00    -0.020 A 
ATOM     22  CD2 TYR A   2      34.137  48.478 -19.395  0.00  0.00    -0.001 A 
ATOM     23  CE2 TYR A   2      35.503  48.549 -19.147  0.00  0.00    +0.036 A 
ATOM     24  CZ  TYR A   2      36.389  47.939 -20.015  0.00  0.00    +0.134 A 
ATOM     25  CE1 TYR A   2      35.921  47.259 -21.135  0.00  0.00    +0.036 A 
ATOM     26  CD1 TYR A   2      34.553  47.192 -21.372  0.00  0.00    -0.001 A 
BRANCH  24  27
ATOM     27  OH  TYR A   2      37.736  47.984 -19.767  0.00  0.00    -0.506 OA
ATOM     28  HH  TYR A   2      38.219  47.501 -20.484  0.00  0.00    +0.292 HD
ENDBRANCH  24  27
ENDBRANCH  20  21
ENDBRANCH  17  20
ENDBRANCH   2  17
TORSDOF 10
REMARK  Name = ../refined-set-2016/1fzo/1fzo_pocket.pdb
REMARK  339 active torsions:
REMARK  status: ('A' for Active; 'I' for Inactive)
REMARK    1  A    between atoms: _1  and  _3
REMARK    2  A    between atoms: _3  and  _4
REMARK    3  A    between atoms: _3  and  _6
REMARK    4  A    between atoms: _6  and  _7
REMARK    5  A    between atoms: _10  and  _12
REMARK    6  A    between atoms: _12  and  _13
REMARK    7  A    between atoms: _12  and  _15
REMARK    8  A    between atoms: _15  and  _16
REMARK    9  A    between atoms: _16  and  _17
REMARK   10  A    between atoms: _17  and  _18
REMARK   11  A    between atoms: _27  and  _29
REMARK   12  A    between atoms: _29  and  _30
REMARK   13  A    between atoms: _29  and  _32
REMARK   14  A    between atoms: _32  and  _33
REMARK   15  A    between atoms: _38  and  _39
REMARK   16  A    between atoms: _41  and  _43
REMARK   17  A    between atoms: _43  and  _44
REMARK   18  A    between atoms: _43  and  _46
REMARK   19  A    between atoms: _46  and  _47
REMARK   20  A    between atoms: _53  and  _55
REMARK   21  A    between atoms: _55  and  _56
REMARK   22  A    between atoms: _55  and  _58
REMARK   23  A    between atoms: _61  and  _63
REMARK   24  A    between atoms: _63  and  _64
REMARK   25  A    between atoms: _63  and  _66
REMARK   26  A    between atoms: _66  and  _67
REMARK   27  A    between atoms: _70  and  _72
REMARK   28  A    between atoms: _72  and  _73
REMARK   29  A    between atoms: _72  and  _75
REMARK   30  A    between atoms: _75  and  _76
REMARK   31  A    between atoms: _82  and  _84
REMARK   32  A    between atoms: _84  and  _85
REMARK   33  A    between atoms: _84  and  _87
REMARK   34  A    between atoms: _87  and  _88
REMARK   35  A    between atoms: _91  and  _93
REMARK   36  A    between atoms: _93  and  _94
REMARK   37  A    between atoms: _93  and  _96
REMARK   38  A    between atoms: _96  and  _97
REMARK   39  A    between atoms: _99  and  _101
REMARK   40  A    between atoms: _101  and  _102
REMARK   41  A    between atoms: _101  and  _104
REMARK   42  A    between atoms: _107  and  _109
REMARK   43  A    between atoms: _109  and  _110
REMARK   44  A    between atoms: _112  and  _114
REMARK   45  A    between atoms: _114  and  _115
REMARK   46  A    between atoms: _114  and  _117
REMARK   47  A    between atoms: _120  and  _122
REMARK   48  A    between atoms: _122  and  _123
REMARK   49  A    between atoms: _122  and  _125
REMARK   50  A    between atoms: _125  and  _126
REMARK   51  A    between atoms: _132  and  _134
REMARK   52  A    between atoms: _134  and  _135
REMARK   53  A    between atoms: _134  and  _137
REMARK   54  A    between atoms: _140  and  _142
REMARK   55  A    between atoms: _142  and  _143
REMARK   56  A    between atoms: _142  and  _145
REMARK   57  A    between atoms: _145  and  _146
REMARK   58  A    between atoms: _151  and  _152
REMARK   59  A    between atoms: _154  and  _156
REMARK   60  A    between atoms: _156  and  _157
REMARK   61  A    between atoms: _156  and  _159
REMARK   62  A    between atoms: _159  and  _160
REMARK   63  A    between atoms: _160  and  _161
REMARK   64  A    between atoms: _163  and  _165
REMARK   65  A    between atoms: _165  and  _166
REMARK   66  A    between atoms: _165  and  _168
REMARK   67  A    between atoms: _168  and  _169
REMARK   68  A    between atoms: _169  and  _170
REMARK   69  A    between atoms: _173  and  _175
REMARK   70  A    between atoms: _175  and  _176
REMARK   71  A    between atoms: _175  and  _178
REMARK   72  A    between atoms: _178  and  _179
REMARK   73  A    between atoms: _179  and  _180
REMARK   74  A    between atoms: _183  and  _185
REMARK   75  A    between atoms: _185  and  _186
REMARK   76  A    between atoms: _185  and  _188
REMARK   77  A    between atoms: _188  and  _189
REMARK   78  A    between atoms: _194  and  _195
REMARK   79  A    between atoms: _197  and  _199
REMARK   80  A    between atoms: _199  and  _200
REMARK   81  A    between atoms: _199  and  _202
REMARK   82  A    between atoms: _202  and  _203
REMARK   83  A    between atoms: _213  and  _215
REMARK   84  A    between atoms: _215  and  _216
REMARK   85  A    between atoms: _215  and  _218
REMARK   86  A    between atoms: _218  and  _219
REMARK   87  A    between atoms: _219  and  _220
REMARK   88  A    between atoms: _223  and  _225
REMARK   89  A    between atoms: _225  and  _226
REMARK   90  A    between atoms: _225  and  _228
REMARK   91  A    between atoms: _228  and  _229
REMARK   92  A    between atoms: _229  and  _230
REMARK   93  A    between atoms: _230  and  _231
REMARK   94  A    between atoms: _240  and  _242
REMARK   95  A    between atoms: _242  and  _243
REMARK   96  A    between atoms: _242  and  _245
REMARK   97  A    between atoms: _245  and  _246
REMARK   98  A    between atoms: _246  and  _247
REMARK   99  A    between atoms: _250  and  _252
REMARK  100  A    between atoms: _252  and  _253
REMARK  101  A    between atoms: _252  and  _255
REMARK  102  A    between atoms: _255  and  _256
REMARK  103  A    between atoms: _259  and  _261
REMARK  104  A    between atoms: _261  and  _262
REMARK  105  A    between atoms: _261  and  _264
REMARK  106  A    between atoms: _264  and  _265
REMARK  107  A    between atoms: _265  and  _266
REMARK  108  A    between atoms: _271  and  _273
REMARK  109  A    between atoms: _273  and  _274
REMARK  110  A    between atoms: _273  and  _276
REMARK  111  A    between atoms: _276  and  _277
REMARK  112  A    between atoms: _277  and  _278
REMARK  113  A    between atoms: _278  and  _279
REMARK  114  A    between atoms: _279  and  _280
REMARK  115  A    between atoms: _284  and  _286
REMARK  116  A    between atoms: _286  and  _287
REMARK  117  A    between atoms: _290  and  _292
REMARK  118  A    between atoms: _292  and  _293
REMARK  119  A    between atoms: _295  and  _297
REMARK  120  A    between atoms: _297  and  _298
REMARK  121  A    between atoms: _297  and  _300
REMARK  122  A    between atoms: _300  and  _301
REMARK  123  A    between atoms: _306  and  _308
REMARK  124  A    between atoms: _308  and  _309
REMARK  125  A    between atoms: _308  and  _311
REMARK  126  A    between atoms: _311  and  _312
REMARK  127  A    between atoms: _312  and  _313
REMARK  128  A    between atoms: _316  and  _318
REMARK  129  A    between atoms: _318  and  _319
REMARK  130  A    between atoms: _318  and  _321
REMARK  131  A    between atoms: _321  and  _322
REMARK  132  A    between atoms: _322  and  _323
REMARK  133  A    between atoms: _328  and  _330
REMARK  134  A    between atoms: _330  and  _331
REMARK  135  A    between atoms: _330  and  _333
REMARK  136  A    between atoms: _333  and  _334
REMARK  137  A    between atoms: _336  and  _338
REMARK  138  A    between atoms: _338  and  _339
REMARK  139  A    between atoms: _338  and  _341
REMARK  140  A    between atoms: _341  and  _342
REMARK  141  A    between atoms: _348  and  _350
REMARK  142  A    between atoms: _350  and  _351
REMARK  143  A    between atoms: _350  and  _353
REMARK  144  A    between atoms: _356  and  _358
REMARK  145  A    between atoms: _358  and  _359
REMARK  146  A    between atoms: _358  and  _361
REMARK  147  A    between atoms: _361  and  _362
REMARK  148  A    between atoms: _365  and  _367
REMARK  149  A    between atoms: _367  and  _368
REMARK  150  A    between atoms: _367  and  _370
REMARK  151  A    between atoms: _370  and  _371
REMARK  152  A    between atoms: _374  and  _376
REMARK  153  A    between atoms: _376  and  _377
REMARK  154  A    between atoms: _376  and  _379
REMARK  155  A    between atoms: _379  and  _380
REMARK  156  A    between atoms: _383  and  _385
REMARK  157  A    between atoms: _385  and  _386
REMARK  158  A    between atoms: _385  and  _388
REMARK  159  A    between atoms: _388  and  _389
REMARK  160  A    between atoms: _392  and  _394
REMARK  161  A    between atoms: _394  and  _395
REMARK  162  A    between atoms: _394  and  _397
REMARK  163  A    between atoms: _397  and  _398
REMARK  164  A    between atoms: _403  and  _404
REMARK  165  A    between atoms: _406  and  _408
REMARK  166  A    between atoms: _408  and  _409
REMARK  167  A    between atoms: _408  and  _411
REMARK  168  A    between atoms: _411  and  _412
REMARK  169  A    between atoms: _417  and  _418
REMARK  170  A    between atoms: _420  and  _422
REMARK  171  A    between atoms: _422  and  _423
REMARK  172  A    between atoms: _422  and  _425
REMARK  173  A    between atoms: _425  and  _426
REMARK  174  A    between atoms: _429  and  _431
REMARK  175  A    between atoms: _431  and  _432
REMARK  176  A    between atoms: _431  and  _434
REMARK  177  A    between atoms: _434  and  _435
REMARK  178  A    between atoms: _435  and  _436
REMARK  179  A    between atoms: _441  and  _443
REMARK  180  A    between atoms: _443  and  _444
REMARK  181  A    between atoms: _443  and  _446
REMARK  182  A    between atoms: _449  and  _451
REMARK  183  A    between atoms: _451  and  _452
REMARK  184  A    between atoms: _451  and  _454
REMARK  185  A    between atoms: _454  and  _455
REMARK  186  A    between atoms: _458  and  _460
REMARK  187  A    between atoms: _460  and  _461
REMARK  188  A    between atoms: _460  and  _463
REMARK  189  A    between atoms: _463  and  _464
REMARK  190  A    between atoms: _466  and  _468
REMARK  191  A    between atoms: _468  and  _469
REMARK  192  A    between atoms: _471  and  _473
REMARK  193  A    between atoms: _473  and  _474
REMARK  194  A    between atoms: _473  and  _476
REMARK  195  A    between atoms: _476  and  _477
REMARK  196  A    between atoms: _477  and  _772
REMARK  197  A    between atoms: _478  and  _480
REMARK  198  A    between atoms: _480  and  _481
REMARK  199  A    between atoms: _480  and  _483
REMARK  200  A    between atoms: _483  and  _484
REMARK  201  A    between atoms: _489  and  _490
REMARK  202  A    between atoms: _492  and  _494
REMARK  203  A    between atoms: _494  and  _495
REMARK  204  A    between atoms: _494  and  _497
REMARK  205  A    between atoms: _497  and  _498
REMARK  206  A    between atoms: _498  and  _499
REMARK  207  A    between atoms: _504  and  _506
REMARK  208  A    between atoms: _506  and  _507
REMARK  209  A    between atoms: _506  and  _509
REMARK  210  A    between atoms: _509  and  _510
REMARK  211  A    between atoms: _510  and  _511
REMARK  212  A    between atoms: _516  and  _518
REMARK  213  A    between atoms: _518  and  _519
REMARK  214  A    between atoms: _518  and  _521
REMARK  215  A    between atoms: _521  and  _522
REMARK  216  A    between atoms: _527  and  _528
REMARK  217  A    between atoms: _530  and  _532
REMARK  218  A    between atoms: _532  and  _533
REMARK  219  A    between atoms: _536  and  _538
REMARK  220  A    between atoms: _538  and  _539
REMARK  221  A    between atoms: _538  and  _541
REMARK  222  A    between atoms: _541  and  _542
REMARK  223  A    between atoms: _547  and  _548
REMARK  224  A    between atoms: _550  and  _552
REMARK  225  A    between atoms: _552  and  _553
REMARK  226  A    between atoms: _552  and  _555
REMARK  227  A    between atoms: _555  and  _556
REMARK  228  A    between atoms: _561  and  _562
REMARK  229  A    between atoms: _564  and  _566
REMARK  230  A    between atoms: _566  and  _567
REMARK  231  A    between atoms: _566  and  _569
REMARK  232  A    between atoms: _569  and  _570
REMARK  233  A    between atoms: _573  and  _575
REMARK  234  A    between atoms: _575  and  _576
REMARK  235  A    between atoms: _575  and  _578
REMARK  236  A    between atoms: _578  and  _579
REMARK  237  A    between atoms: _589  and  _591
REMARK  238  A    between atoms: _591  and  _592
REMARK  239  A    between atoms: _595  and  _597
REMARK  240  A    between atoms: _597  and  _598
REMARK  241  A    between atoms: _601  and  _603
REMARK  242  A    between atoms: _603  and  _604
REMARK  243  A    between atoms: _603  and  _606
REMARK  244  A    between atoms: _606  and  _607
REMARK  245  A    between atoms: _610  and  _612
REMARK  246  A    between atoms: _612  and  _613
REMARK  247  A    between atoms: _612  and  _615
REMARK  248  A    between atoms: _615  and  _616
REMARK  249  A    between atoms: _619  and  _621
REMARK  250  A    between atoms: _621  and  _622
REMARK  251  A    between atoms: _621  and  _624
REMARK  252  A    between atoms: _624  and  _625
REMARK  253  A    between atoms: _628  and  _630
REMARK  254  A    between atoms: _630  and  _631
REMARK  255  A    between atoms: _630  and  _633
REMARK  256  A    between atoms: _633  and  _634
REMARK  257  A    between atoms: _634  and  _635
REMARK  258  A    between atoms: _635  and  _636
REMARK  259  A    between atoms: _636  and  _637
REMARK  260  A    between atoms: _641  and  _643
REMARK  261  A    between atoms: _643  and  _644
REMARK  262  A    between atoms: _643  and  _646
REMARK  263  A    between atoms: _646  and  _647
REMARK  264  A    between atoms: _652  and  _654
REMARK  265  A    between atoms: _654  and  _655
REMARK  266  A    between atoms: _654  and  _657
REMARK  267  A    between atoms: _657  and  _658
REMARK  268  A    between atoms: _658  and  _659
REMARK  269  A    between atoms: _659  and  _660
REMARK  270  A    between atoms: _660  and  _661
REMARK  271  A    between atoms: _665  and  _667
REMARK  272  A    between atoms: _667  and  _668
REMARK  273  A    between atoms: _667  and  _670
REMARK  274  A    between atoms: _670  and  _671
REMARK  275  A    between atoms: _681  and  _683
REMARK  276  A    between atoms: _683  and  _684
REMARK  277  A    between atoms: _687  and  _689
REMARK  278  A    between atoms: _689  and  _690
REMARK  279  A    between atoms: _692  and  _694
REMARK  280  A    between atoms: _694  and  _695
REMARK  281  A    between atoms: _694  and  _697
REMARK  282  A    between atoms: _697  and  _698
REMARK  283  A    between atoms: _698  and  _699
REMARK  284  A    between atoms: _702  and  _704
REMARK  285  A    between atoms: _704  and  _705
REMARK  286  A    between atoms: _708  and  _710
REMARK  287  A    between atoms: _710  and  _711
REMARK  288  A    between atoms: _710  and  _713
REMARK  289  A    between atoms: _713  and  _714
REMARK  290  A    between atoms: _714  and  _715
REMARK  291  A    between atoms: _715  and  _716
REMARK  292  A    between atoms: _725  and  _727
REMARK  293  A    between atoms: _727  and  _728
REMARK  294  A    between atoms: _727  and  _730
REMARK  295  A    between atoms: _730  and  _731
REMARK  296  A    between atoms: _734  and  _736
REMARK  297  A    between atoms: _736  and  _737
REMARK  298  A    between atoms: _736  and  _739
REMARK  299  A    between atoms: _739  and  _740
REMARK  300  A    between atoms: _745  and  _746
REMARK  301  A    between atoms: _748  and  _750
REMARK  302  A    between atoms: _750  and  _751
REMARK  303  A    between atoms: _750  and  _753
REMARK  304  A    between atoms: _753  and  _754
REMARK  305  A    between atoms: _757  and  _759
REMARK  306  A    between atoms: _759  and  _760
REMARK  307  A    between atoms: _759  and  _762
REMARK  308  A    between atoms: _762  and  _763
REMARK  309  A    between atoms: _766  and  _768
REMARK  310  A    between atoms: _768  and  _769
REMARK  311  A    between atoms: _768  and  _771
REMARK  312  A    between atoms: _771  and  _772
REMARK  313  A    between atoms: _773  and  _775
REMARK  314  A    between atoms: _775  and  _776
REMARK  315  A    between atoms: _775  and  _778
REMARK  316  A    between atoms: _781  and  _783
REMARK  317  A    between atoms: _783  and  _784
REMARK  318  A    between atoms: _783  and  _786
REMARK  319  A    between atoms: _786  and  _787
REMARK  320  A    between atoms: _787  and  _788
REMARK  321  A    between atoms: _791  and  _793
REMARK  322  A    between atoms: _793  and  _794
REMARK  323  A    between atoms: _793  and  _796
REMARK  324  A    between atoms: _796  and  _797
REMARK  325  A    between atoms: _807  and  _809
REMARK  326  A    between atoms: _809  and  _810
REMARK  327  A    between atoms: _809  and  _812
REMARK  328  A    between atoms: _812  and  _813
REMARK  329  A    between atoms: _816  and  _818
REMARK  330  A    between atoms: _818  and  _819
REMARK  331  A    between atoms: _818  and  _821
REMARK  332  A    between atoms: _821  and  _822
REMARK  333  A    between atoms: _822  and  _823
REMARK  334  A    between atoms: _823  and  _824
REMARK  335  A    between atoms: _833  and  _835
REMARK  336  A    between atoms: _835  and  _836
REMARK  337  A    between atoms: _835  and  _838
REMARK  338  A    between atoms: _838  and  _839
REMARK  339  A    between atoms: _844  and  _845
REMARK                            x       y       z     vdW  Elec       q    Type
REMARK                         _______ _______ _______ _____ _____    ______ ____
ROOT
ATOM      1  SG  CYS A   2      53.762  55.144  -0.885  0.00  0.00    -0.080 S 
ENDROOT
BRANCH   1   2
ATOM      2  SG  CYS A   7      55.684  54.451  -0.811  0.00  0.00    -0.080 S 
BRANCH   2   3
ATOM      3  CB  CYS A   7      56.093  54.085  -2.551  0.00  0.00    +0.096 C 
BRANCH   3   4
ATOM      4  CA  CYS A   7      55.836  52.627  -2.992  0.00  0.00    +0.149 C 
BRANCH   4   6
ATOM      5  C   LEU A   6      53.568  52.269  -3.800  0.00  0.00    +0.243 C 
ATOM      6  N   CYS A   7      54.450  52.254  -2.811  0.00  0.00    -0.297 N 
ATOM      7  H   CYS A   7      54.132  51.962  -1.865  0.00  0.00    +0.150 HD
ATOM      8  O   LEU A   6      53.837  52.621  -4.946  0.00  0.00    -0.273 OA
BRANCH   5   9
ATOM      9  CA  LEU A   6      52.190  51.797  -3.410  0.00  0.00    +0.176 C 
BRANCH   9  12
ATOM     10  C   TRP A   5      49.922  51.576  -4.112  0.00  0.00    +0.243 C 
ATOM     11  O   TRP A   5      49.617  51.092  -3.022  0.00  0.00    -0.273 OA
ATOM     12  N   LEU A   6      51.160  51.950  -4.413  0.00  0.00    -0.295 N 
ATOM     13  H   LEU A   6      51.384  52.344  -5.349  0.00  0.00    +0.150 HD
BRANCH  10  14
ATOM     14  CA  TRP A   5      48.859  51.787  -5.173  0.00  0.00    +0.178 C 
BRANCH  14  16
ATOM     15  C   GLU A   4      47.626  49.936  -6.198  0.00  0.00    +0.241 C 
ATOM     16  N   TRP A   5      47.960  50.638  -5.115  0.00  0.00    -0.295 N 
ATOM     17  H   TRP A   5      47.566  50.357  -4.195  0.00  0.00    +0.150 HD
ATOM     18  O   GLU A   4      47.997  50.233  -7.329  0.00  0.00    -0.273 OA
BRANCH  15  19
ATOM     19  CA  GLU A   4      46.700  48.746  -5.964  0.00  0.00    +0.149 C 
BRANCH  19  22
ATOM     20  C   VAL A   3      44.345  49.011  -6.400  0.00  0.00    +0.241 C 
ATOM     21  O   VAL A   3      44.052  48.758  -5.228  0.00  0.00    -0.273 OA
ATOM     22  N   GLU A   4      45.579  48.963  -6.869  0.00  0.00    -0.297 N 
ATOM     23  H   GLU A   4      45.751  49.081  -7.888  0.00  0.00    +0.150 HD
BRANCH  20  24
ATOM     24  CA  VAL A   3      43.281  49.357  -7.401  0.00  0.00    +0.149 C 
BRANCH  24  26
ATOM     25  C   CYS A   2      41.492  48.027  -8.261  0.00  0.00    +0.241 C 
ATOM     26  N   VAL A   3      42.136  48.511  -7.207  0.00  0.00    -0.297 N 
ATOM     27  H   VAL A   3      41.814  48.279  -6.246  0.00  0.00    +0.150 HD
ATOM     28  O   CYS A   2      41.797  48.292  -9.418  0.00  0.00    -0.273 OA
BRANCH  25  29
ATOM     29  CA  CYS A   2      40.343  47.110  -7.962  0.00  0.00    +0.149 C 
BRANCH  29  32
ATOM     30  C   THR A   1      38.030  47.531  -8.521  0.00  0.00    +0.238 C 
ATOM     31  O   THR A   1      37.692  47.490  -7.336  0.00  0.00    -0.274 OA
ATOM     32  N   CYS A   2      39.275  47.333  -8.915  0.00  0.00    -0.297 N 
ATOM     33  H   CYS A   2      39.493  47.337  -9.932  0.00  0.00    +0.150 HD
BRANCH  30  34
ATOM     34  CA  THR A   1      37.004  47.789  -9.624  0.00  0.00    +0.145 C 
BRANCH  34  35
ATOM     35  N   THR A   1      35.848  46.997  -9.258  0.00  0.00    -0.238 NA
ATOM     36  H   THR A   1      35.309  47.236  -8.401  0.00  0.00    +0.142 HD
ENDBRANCH  34  35
BRANCH  34  37
ATOM     37  CB  THR A   1      36.720  49.308  -9.688  0.00  0.00    +0.025 C 
ATOM     38  CG2 THR A   1      38.061  50.056  -9.872  0.00  0.00    +0.002 C 
BRANCH  37  39
ATOM     39  CG1 THR A   1      35.757  49.622 -10.842  0.00  0.00    +0.002 C 
ATOM     40  CD1 THR A   1      35.250  51.084 -10.840  0.00  0.00    +0.000 C 
ENDBRANCH  37  39
ENDBRANCH  34  37
ENDBRANCH  30  34
ENDBRANCH  29  32
BRANCH  29  41
ATOM     41  CB  CYS A   2      40.858  45.675  -8.034  0.00  0.00    +0.039 C 
BRANCH  41  42
ATOM     42  CG  CYS A   2      39.903  44.678  -7.440  0.00  0.00    +0.087 C 
BRANCH  42  43
ATOM     43  CD  CYS A   2      40.236  43.270  -7.874  0.00  0.00    +0.219 C 
ATOM     44  NE2 CYS A   2      41.196  42.638  -7.185  0.00  0.00    -0.329 N 
ATOM     45 HE21 CYS A   2      41.665  43.116  -6.389  0.00  0.00    +0.145 HD
ATOM     46 HE22 CYS A   2      41.472  41.670  -7.446  0.00  0.00    +0.145 HD
ATOM     47  OE1 CYS A   2      39.641  42.753  -8.831  0.00  0.00    -0.275 OA
ENDBRANCH  42  43
ENDBRANCH  41  42
ENDBRANCH  29  41
ENDBRANCH  25  29
ENDBRANCH  24  26
BRANCH  24  48
ATOM     48  CB  VAL A   3      42.970  50.870  -7.223  0.00  0.00    +0.027 C 
ATOM     49  CG2 VAL A   3      44.136  51.690  -7.812  0.00  0.00    +0.002 C 
ATOM     50  CG1 VAL A   3      41.663  51.238  -7.885  0.00  0.00    +0.002 C 
ENDBRANCH  24  48
ENDBRANCH  20  24
ENDBRANCH  19  22
BRANCH  19  51
ATOM     51  CB  GLU A   4      47.457  47.408  -6.236  0.00  0.00    +0.027 C 
ATOM     52  CG2 GLU A   4      47.718  47.233  -7.755  0.00  0.00    +0.002 C 
BRANCH  51  53
ATOM     53  CG1 GLU A   4      48.799  47.405  -5.493  0.00  0.00    +0.002 C 
ATOM     54  CD1 GLU A   4      48.682  47.412  -3.974  0.00  0.00    +0.000 C 
ENDBRANCH  51  53
ENDBRANCH  19  51
ENDBRANCH  15  19
ENDBRANCH  14  16
BRANCH  14  55
ATOM     55  CB  TRP A   5      48.127  53.087  -4.830  0.00  0.00    +0.166 C 
BRANCH  55  56
ATOM     56  O   TRP A   5      46.989  53.296  -5.636  0.00  0.00    -0.380 OA
ATOM     57  H   TRP A   5      46.355  52.546  -5.510  0.00  0.00    +0.211 HD
ENDBRANCH  55  56
ENDBRANCH  14  55
ENDBRANCH  10  14
ENDBRANCH   9  12
ENDBRANCH   5   9
ENDBRANCH   4   6
BRANCH   4  58
ATOM     58  C   CYS A   7      56.676  51.665  -2.171  0.00  0.00    +0.228 C 
ATOM     59  O   CYS A   7      56.213  51.081  -1.174  0.00  0.00    -0.286 OA
ENDBRANCH   4  58
ENDBRANCH   3   4
ENDBRANCH   2   3
ENDBRANCH   1   2
BRANCH   1  60
ATOM     60  CB  CYS A   2      53.978  56.946  -1.117  0.00  0.00    +0.098 C 
BRANCH  60  61
ATOM     61  CA  CYS A   2      54.156  57.672   0.222  0.00  0.00    +0.160 C 
BRANCH  61  62
ATOM     62  N   CYS A   2      54.121  59.120  -0.015  0.00  0.00    -0.296 N 
ATOM     63  C   THR A   1      54.230  59.969   0.994  0.00  0.00    +0.241 C 
ATOM     64  O   THR A   1      54.374  59.607   2.173  0.00  0.00    -0.274 OA
ATOM     65  H   CYS A   2      54.010  59.482  -0.984  0.00  0.00    +0.150 HD
BRANCH  63  66
ATOM     66  CA  THR A   1      54.130  61.450   0.621  0.00  0.00    +0.172 C 
BRANCH  66  67
ATOM     67  CB  THR A   1      52.671  61.745   0.220  0.00  0.00    +0.135 C 
ATOM     68  CG2 THR A   1      51.707  61.418   1.336  0.00  0.00    +0.034 C 
BRANCH  67  69
ATOM     69  OG1 THR A   1      52.566  63.136  -0.096  0.00  0.00    -0.383 OA
ATOM     70  HG1 THR A   1      51.634  63.345  -0.356  0.00  0.00    +0.210 HD
ENDBRANCH  67  69
ENDBRANCH  66  67
BRANCH  66  71
ATOM     71  N   THR A   1      55.016  61.851  -0.460  0.00  0.00    -0.236 NA
ATOM     72  H   THR A   1      54.619  62.418  -1.236  0.00  0.00    +0.142 HD
ENDBRANCH  66  71
ENDBRANCH  63  66
ENDBRANCH  61  62
BRANCH  61  73
ATOM     73  C   CYS A   2      55.460  57.232   0.914  0.00  0.00    +0.242 C 
ATOM     74  O   CYS A   2      55.448  56.478   1.907  0.00  0.00    -0.273 OA
ATOM     75  N   VAL A   3      56.586  57.719   0.410  0.00  0.00    -0.297 N 
ATOM     76  H   VAL A   3      56.539  58.361  -0.407  0.00  0.00    +0.150 HD
BRANCH  75  77
ATOM     77  CA  VAL A   3      57.892  57.377   0.974  0.00  0.00    +0.149 C 
BRANCH  77  78
ATOM     78  C   VAL A   3      58.037  57.931   2.388  0.00  0.00    +0.241 C 
ATOM     79  O   VAL A   3      58.485  57.234   3.305  0.00  0.00    -0.273 OA
ATOM     80  N   GLU A   4      57.632  59.188   2.575  0.00  0.00    -0.297 N 
ATOM     81  H   GLU A   4      57.230  59.726   1.781  0.00  0.00    +0.150 HD
BRANCH  80  82
ATOM     82  CA  GLU A   4      57.749  59.809   3.880  0.00  0.00    +0.149 C 
BRANCH  82  83
ATOM     83  C   GLU A   4      56.941  59.117   4.951  0.00  0.00    +0.241 C 
ATOM     84  O   GLU A   4      57.421  58.938   6.061  0.00  0.00    -0.273 OA
ATOM     85  N   TRP A   5      55.711  58.744   4.630  0.00  0.00    -0.297 N 
ATOM     86  H   TRP A   5      55.339  58.937   3.678  0.00  0.00    +0.150 HD
BRANCH  85  87
ATOM     87  CA  TRP A   5      54.883  58.065   5.610  0.00  0.00    +0.153 C 
BRANCH  87  88
ATOM     88  C   TRP A   5      55.368  56.632   5.857  0.00  0.00    +0.241 C 
ATOM     89  O   TRP A   5      55.308  56.136   6.980  0.00  0.00    -0.273 OA
ATOM     90  N   LEU A   6      55.847  55.962   4.817  0.00  0.00    -0.298 N 
ATOM     91  H   LEU A   6      55.853  56.393   3.871  0.00  0.00    +0.150 HD
BRANCH  90  92
ATOM     92  CA  LEU A   6      56.367  54.607   5.018  0.00  0.00    +0.137 C 
BRANCH  92  93
ATOM     93  C   LEU A   6      57.521  54.684   6.019  0.00  0.00    +0.227 C 
ATOM     94  O   LEU A   6      57.599  53.897   6.956  0.00  0.00    -0.286 OA
ENDBRANCH  92  93
BRANCH  92  95
ATOM     95  CB  LEU A   6      56.849  54.023   3.682  0.00  0.00    +0.028 C 
BRANCH  95  96
ATOM     96  CG  LEU A   6      57.576  52.668   3.702  0.00  0.00    +0.002 C 
ATOM     97  CD2 LEU A   6      56.789  51.621   4.467  0.00  0.00    +0.000 C 
ATOM     98  CD1 LEU A   6      57.788  52.238   2.254  0.00  0.00    +0.000 C 
ENDBRANCH  95  96
ENDBRANCH  92  95
ENDBRANCH  90  92
ENDBRANCH  87  88
BRANCH  87  99
ATOM     99  CB  TRP A   5      53.413  58.093   5.174  0.00  0.00    +0.057 C 
BRANCH  99 100
ATOM    100  CG  TRP A   5      52.773  59.411   5.497  0.00  0.00    -0.002 A 
ATOM    101  CD2 TRP A   5      52.180  59.781   6.748  0.00  0.00    +0.013 A 
ATOM    102  CE3 TRP A   5      51.997  59.117   7.969  0.00  0.00    +0.001 A 
ATOM    103  CZ3 TRP A   5      51.352  59.785   9.008  0.00  0.00    +0.000 A 
ATOM    104  CH2 TRP A   5      50.893  61.110   8.839  0.00  0.00    +0.001 A 
ATOM    105  CZ2 TRP A   5      51.067  61.782   7.655  0.00  0.00    +0.017 A 
ATOM    106  CE2 TRP A   5      51.711  61.107   6.614  0.00  0.00    +0.056 A 
ATOM    107  NE1 TRP A   5      52.010  61.522   5.339  0.00  0.00    -0.352 N 
ATOM    108  HE1 TRP A   5      51.789  62.456   4.939  0.00  0.00    +0.166 HD
ATOM    109  CD1 TRP A   5      52.653  60.495   4.676  0.00  0.00    +0.068 A 
ENDBRANCH  99 100
ENDBRANCH  87  99
ENDBRANCH  85  87
ENDBRANCH  82  83
BRANCH  82 110
ATOM    110  CB  GLU A   4      57.354  61.290   3.788  0.00  0.00    +0.041 C 
BRANCH 110 111
ATOM    111  CG  GLU A   4      58.458  62.122   3.168  0.00  0.00    +0.116 C 
BRANCH 111 112
ATOM    112  CD  GLU A   4      57.948  63.411   2.557  0.00  0.00    +0.365 C 
ATOM    113  OE2 GLU A   4      57.007  64.013   3.124  0.00  0.00    -0.246 OA
ATOM    114  OE1 GLU A   4      58.499  63.822   1.512  0.00  0.00    -0.246 OA
ENDBRANCH 111 112
ENDBRANCH 110 111
ENDBRANCH  82 110
ENDBRANCH  80  82
ENDBRANCH  77  78
BRANCH  77 115
ATOM    115  CB  VAL A   3      59.011  57.921   0.070  0.00  0.00    +0.027 C 
ATOM    116  CG2 VAL A   3      60.376  57.812   0.757  0.00  0.00    +0.002 C 
ATOM    117  CG1 VAL A   3      59.010  57.148  -1.252  0.00  0.00    +0.002 C 
ENDBRANCH  77 115
ENDBRANCH  75  77
ENDBRANCH  61  73
ENDBRANCH  60  61
ENDBRANCH   1  60
TORSDOF 51
REMARK  Name = ../refined-set-2016/1fzo/1fzo_pocket.pdb
REMARK  339 active torsions:
REMARK  status: ('A' for Active; 'I' for Inactive)
REMARK    1  A    between atoms: _1  and  _3
REMARK    2  A    between atoms: _3  and  _4
REMARK    3  A    between atoms: _3  and  _6
REMARK    4  A    between atoms: _6  and  _7
REMARK    5  A    between atoms: _10  and  _12
REMARK    6  A    between atoms: _12  and  _13
REMARK    7  A    between atoms: _12  and  _15
REMARK    8  A    between atoms: _15  and  _16
REMARK    9  A    between atoms: _16  and  _17
REMARK   10  A    between atoms: _17  and  _18
REMARK   11  A    between atoms: _27  and  _29
REMARK   12  A    between atoms: _29  and  _30
REMARK   13  A    between atoms: _29  and  _32
REMARK   14  A    between atoms: _32  and  _33
REMARK   15  A    between atoms: _38  and  _39
REMARK   16  A    between atoms: _41  and  _43
REMARK   17  A    between atoms: _43  and  _44
REMARK   18  A    between atoms: _43  and  _46
REMARK   19  A    between atoms: _46  and  _47
REMARK   20  A    between atoms: _53  and  _55
REMARK   21  A    between atoms: _55  and  _56
REMARK   22  A    between atoms: _55  and  _58
REMARK   23  A    between atoms: _61  and  _63
REMARK   24  A    between atoms: _63  and  _64
REMARK   25  A    between atoms: _63  and  _66
REMARK   26  A    between atoms: _66  and  _67
REMARK   27  A    between atoms: _70  and  _72
REMARK   28  A    between atoms: _72  and  _73
REMARK   29  A    between atoms: _72  and  _75
REMARK   30  A    between atoms: _75  and  _76
REMARK   31  A    between atoms: _82  and  _84
REMARK   32  A    between atoms: _84  and  _85
REMARK   33  A    between atoms: _84  and  _87
REMARK   34  A    between atoms: _87  and  _88
REMARK   35  A    between atoms: _91  and  _93
REMARK   36  A    between atoms: _93  and  _94
REMARK   37  A    between atoms: _93  and  _96
REMARK   38  A    between atoms: _96  and  _97
REMARK   39  A    between atoms: _99  and  _101
REMARK   40  A    between atoms: _101  and  _102
REMARK   41  A    between atoms: _101  and  _104
REMARK   42  A    between atoms: _107  and  _109
REMARK   43  A    between atoms: _109  and  _110
REMARK   44  A    between atoms: _112  and  _114
REMARK   45  A    between atoms: _114  and  _115
REMARK   46  A    between atoms: _114  and  _117
REMARK   47  A    between atoms: _120  and  _122
REMARK   48  A    between atoms: _122  and  _123
REMARK   49  A    between atoms: _122  and  _125
REMARK   50  A    between atoms: _125  and  _126
REMARK   51  A    between atoms: _132  and  _134
REMARK   52  A    between atoms: _134  and  _135
REMARK   53  A    between atoms: _134  and  _137
REMARK   54  A    between atoms: _140  and  _142
REMARK   55  A    between atoms: _142  and  _143
REMARK   56  A    between atoms: _142  and  _145
REMARK   57  A    between atoms: _145  and  _146
REMARK   58  A    between atoms: _151  and  _152
REMARK   59  A    between atoms: _154  and  _156
REMARK   60  A    between atoms: _156  and  _157
REMARK   61  A    between atoms: _156  and  _159
REMARK   62  A    between atoms: _159  and  _160
REMARK   63  A    between atoms: _160  and  _161
REMARK   64  A    between atoms: _163  and  _165
REMARK   65  A    between atoms: _165  and  _166
REMARK   66  A    between atoms: _165  and  _168
REMARK   67  A    between atoms: _168  and  _169
REMARK   68  A    between atoms: _169  and  _170
REMARK   69  A    between atoms: _173  and  _175
REMARK   70  A    between atoms: _175  and  _176
REMARK   71  A    between atoms: _175  and  _178
REMARK   72  A    between atoms: _178  and  _179
REMARK   73  A    between atoms: _179  and  _180
REMARK   74  A    between atoms: _183  and  _185
REMARK   75  A    between atoms: _185  and  _186
REMARK   76  A    between atoms: _185  and  _188
REMARK   77  A    between atoms: _188  and  _189
REMARK   78  A    between atoms: _194  and  _195
REMARK   79  A    between atoms: _197  and  _199
REMARK   80  A    between atoms: _199  and  _200
REMARK   81  A    between atoms: _199  and  _202
REMARK   82  A    between atoms: _202  and  _203
REMARK   83  A    between atoms: _213  and  _215
REMARK   84  A    between atoms: _215  and  _216
REMARK   85  A    between atoms: _215  and  _218
REMARK   86  A    between atoms: _218  and  _219
REMARK   87  A    between atoms: _219  and  _220
REMARK   88  A    between atoms: _223  and  _225
REMARK   89  A    between atoms: _225  and  _226
REMARK   90  A    between atoms: _225  and  _228
REMARK   91  A    between atoms: _228  and  _229
REMARK   92  A    between atoms: _229  and  _230
REMARK   93  A    between atoms: _230  and  _231
REMARK   94  A    between atoms: _240  and  _242
REMARK   95  A    between atoms: _242  and  _243
REMARK   96  A    between atoms: _242  and  _245
REMARK   97  A    between atoms: _245  and  _246
REMARK   98  A    between atoms: _246  and  _247
REMARK   99  A    between atoms: _250  and  _252
REMARK  100  A    between atoms: _252  and  _253
REMARK  101  A    between atoms: _252  and  _255
REMARK  102  A    between atoms: _255  and  _256
REMARK  103  A    between atoms: _259  and  _261
REMARK  104  A    between atoms: _261  and  _262
REMARK  105  A    between atoms: _261  and  _264
REMARK  106  A    between atoms: _264  and  _265
REMARK  107  A    between atoms: _265  and  _266
REMARK  108  A    between atoms: _271  and  _273
REMARK  109  A    between atoms: _273  and  _274
REMARK  110  A    between atoms: _273  and  _276
REMARK  111  A    between atoms: _276  and  _277
REMARK  112  A    between atoms: _277  and  _278
REMARK  113  A    between atoms: _278  and  _279
REMARK  114  A    between atoms: _279  and  _280
REMARK  115  A    between atoms: _284  and  _286
REMARK  116  A    between atoms: _286  and  _287
REMARK  117  A    between atoms: _290  and  _292
REMARK  118  A    between atoms: _292  and  _293
REMARK  119  A    between atoms: _295  and  _297
REMARK  120  A    between atoms: _297  and  _298
REMARK  121  A    between atoms: _297  and  _300
REMARK  122  A    between atoms: _300  and  _301
REMARK  123  A    between atoms: _306  and  _308
REMARK  124  A    between atoms: _308  and  _309
REMARK  125  A    between atoms: _308  and  _311
REMARK  126  A    between atoms: _311  and  _312
REMARK  127  A    between atoms: _312  and  _313
REMARK  128  A    between atoms: _316  and  _318
REMARK  129  A    between atoms: _318  and  _319
REMARK  130  A    between atoms: _318  and  _321
REMARK  131  A    between atoms: _321  and  _322
REMARK  132  A    between atoms: _322  and  _323
REMARK  133  A    between atoms: _328  and  _330
REMARK  134  A    between atoms: _330  and  _331
REMARK  135  A    between atoms: _330  and  _333
REMARK  136  A    between atoms: _333  and  _334
REMARK  137  A    between atoms: _336  and  _338
REMARK  138  A    between atoms: _338  and  _339
REMARK  139  A    between atoms: _338  and  _341
REMARK  140  A    between atoms: _341  and  _342
REMARK  141  A    between atoms: _348  and  _350
REMARK  142  A    between atoms: _350  and  _351
REMARK  143  A    between atoms: _350  and  _353
REMARK  144  A    between atoms: _356  and  _358
REMARK  145  A    between atoms: _358  and  _359
REMARK  146  A    between atoms: _358  and  _361
REMARK  147  A    between atoms: _361  and  _362
REMARK  148  A    between atoms: _365  and  _367
REMARK  149  A    between atoms: _367  and  _368
REMARK  150  A    between atoms: _367  and  _370
REMARK  151  A    between atoms: _370  and  _371
REMARK  152  A    between atoms: _374  and  _376
REMARK  153  A    between atoms: _376  and  _377
REMARK  154  A    between atoms: _376  and  _379
REMARK  155  A    between atoms: _379  and  _380
REMARK  156  A    between atoms: _383  and  _385
REMARK  157  A    between atoms: _385  and  _386
REMARK  158  A    between atoms: _385  and  _388
REMARK  159  A    between atoms: _388  and  _389
REMARK  160  A    between atoms: _392  and  _394
REMARK  161  A    between atoms: _394  and  _395
REMARK  162  A    between atoms: _394  and  _397
REMARK  163  A    between atoms: _397  and  _398
REMARK  164  A    between atoms: _403  and  _404
REMARK  165  A    between atoms: _406  and  _408
REMARK  166  A    between atoms: _408  and  _409
REMARK  167  A    between atoms: _408  and  _411
REMARK  168  A    between atoms: _411  and  _412
REMARK  169  A    between atoms: _417  and  _418
REMARK  170  A    between atoms: _420  and  _422
REMARK  171  A    between atoms: _422  and  _423
REMARK  172  A    between atoms: _422  and  _425
REMARK  173  A    between atoms: _425  and  _426
REMARK  174  A    between atoms: _429  and  _431
REMARK  175  A    between atoms: _431  and  _432
REMARK  176  A    between atoms: _431  and  _434
REMARK  177  A    between atoms: _434  and  _435
REMARK  178  A    between atoms: _435  and  _436
REMARK  179  A    between atoms: _441  and  _443
REMARK  180  A    between atoms: _443  and  _444
REMARK  181  A    between atoms: _443  and  _446
REMARK  182  A    between atoms: _449  and  _451
REMARK  183  A    between atoms: _451  and  _452
REMARK  184  A    between atoms: _451  and  _454
REMARK  185  A    between atoms: _454  and  _455
REMARK  186  A    between atoms: _458  and  _460
REMARK  187  A    between atoms: _460  and  _461
REMARK  188  A    between atoms: _460  and  _463
REMARK  189  A    between atoms: _463  and  _464
REMARK  190  A    between atoms: _466  and  _468
REMARK  191  A    between atoms: _468  and  _469
REMARK  192  A    between atoms: _471  and  _473
REMARK  193  A    between atoms: _473  and  _474
REMARK  194  A    between atoms: _473  and  _476
REMARK  195  A    between atoms: _476  and  _477
REMARK  196  A    between atoms: _477  and  _772
REMARK  197  A    between atoms: _478  and  _480
REMARK  198  A    between atoms: _480  and  _481
REMARK  199  A    between atoms: _480  and  _483
REMARK  200  A    between atoms: _483  and  _484
REMARK  201  A    between atoms: _489  and  _490
REMARK  202  A    between atoms: _492  and  _494
REMARK  203  A    between atoms: _494  and  _495
REMARK  204  A    between atoms: _494  and  _497
REMARK  205  A    between atoms: _497  and  _498
REMARK  206  A    between atoms: _498  and  _499
REMARK  207  A    between atoms: _504  and  _506
REMARK  208  A    between atoms: _506  and  _507
REMARK  209  A    between atoms: _506  and  _509
REMARK  210  A    between atoms: _509  and  _510
REMARK  211  A    between atoms: _510  and  _511
REMARK  212  A    between atoms: _516  and  _518
REMARK  213  A    between atoms: _518  and  _519
REMARK  214  A    between atoms: _518  and  _521
REMARK  215  A    between atoms: _521  and  _522
REMARK  216  A    between atoms: _527  and  _528
REMARK  217  A    between atoms: _530  and  _532
REMARK  218  A    between atoms: _532  and  _533
REMARK  219  A    between atoms: _536  and  _538
REMARK  220  A    between atoms: _538  and  _539
REMARK  221  A    between atoms: _538  and  _541
REMARK  222  A    between atoms: _541  and  _542
REMARK  223  A    between atoms: _547  and  _548
REMARK  224  A    between atoms: _550  and  _552
REMARK  225  A    between atoms: _552  and  _553
REMARK  226  A    between atoms: _552  and  _555
REMARK  227  A    between atoms: _555  and  _556
REMARK  228  A    between atoms: _561  and  _562
REMARK  229  A    between atoms: _564  and  _566
REMARK  230  A    between atoms: _566  and  _567
REMARK  231  A    between atoms: _566  and  _569
REMARK  232  A    between atoms: _569  and  _570
REMARK  233  A    between atoms: _573  and  _575
REMARK  234  A    between atoms: _575  and  _576
REMARK  235  A    between atoms: _575  and  _578
REMARK  236  A    between atoms: _578  and  _579
REMARK  237  A    between atoms: _589  and  _591
REMARK  238  A    between atoms: _591  and  _592
REMARK  239  A    between atoms: _595  and  _597
REMARK  240  A    between atoms: _597  and  _598
REMARK  241  A    between atoms: _601  and  _603
REMARK  242  A    between atoms: _603  and  _604
REMARK  243  A    between atoms: _603  and  _606
REMARK  244  A    between atoms: _606  and  _607
REMARK  245  A    between atoms: _610  and  _612
REMARK  246  A    between atoms: _612  and  _613
REMARK  247  A    between atoms: _612  and  _615
REMARK  248  A    between atoms: _615  and  _616
REMARK  249  A    between atoms: _619  and  _621
REMARK  250  A    between atoms: _621  and  _622
REMARK  251  A    between atoms: _621  and  _624
REMARK  252  A    between atoms: _624  and  _625
REMARK  253  A    between atoms: _628  and  _630
REMARK  254  A    between atoms: _630  and  _631
REMARK  255  A    between atoms: _630  and  _633
REMARK  256  A    between atoms: _633  and  _634
REMARK  257  A    between atoms: _634  and  _635
REMARK  258  A    between atoms: _635  and  _636
REMARK  259  A    between atoms: _636  and  _637
REMARK  260  A    between atoms: _641  and  _643
REMARK  261  A    between atoms: _643  and  _644
REMARK  262  A    between atoms: _643  and  _646
REMARK  263  A    between atoms: _646  and  _647
REMARK  264  A    between atoms: _652  and  _654
REMARK  265  A    between atoms: _654  and  _655
REMARK  266  A    between atoms: _654  and  _657
REMARK  267  A    between atoms: _657  and  _658
REMARK  268  A    between atoms: _658  and  _659
REMARK  269  A    between atoms: _659  and  _660
REMARK  270  A    between atoms: _660  and  _661
REMARK  271  A    between atoms: _665  and  _667
REMARK  272  A    between atoms: _667  and  _668
REMARK  273  A    between atoms: _667  and  _670
REMARK  274  A    between atoms: _670  and  _671
REMARK  275  A    between atoms: _681  and  _683
REMARK  276  A    between atoms: _683  and  _684
REMARK  277  A    between atoms: _687  and  _689
REMARK  278  A    between atoms: _689  and  _690
REMARK  279  A    between atoms: _692  and  _694
REMARK  280  A    between atoms: _694  and  _695
REMARK  281  A    between atoms: _694  and  _697
REMARK  282  A    between atoms: _697  and  _698
REMARK  283  A    between atoms: _698  and  _699
REMARK  284  A    between atoms: _702  and  _704
REMARK  285  A    between atoms: _704  and  _705
REMARK  286  A    between atoms: _708  and  _710
REMARK  287  A    between atoms: _710  and  _711
REMARK  288  A    between atoms: _710  and  _713
REMARK  289  A    between atoms: _713  and  _714
REMARK  290  A    between atoms: _714  and  _715
REMARK  291  A    between atoms: _715  and  _716
REMARK  292  A    between atoms: _725  and  _727
REMARK  293  A    between atoms: _727  and  _728
REMARK  294  A    between atoms: _727  and  _730
REMARK  295  A    between atoms: _730  and  _731
REMARK  296  A    between atoms: _734  and  _736
REMARK  297  A    between atoms: _736  and  _737
REMARK  298  A    between atoms: _736  and  _739
REMARK  299  A    between atoms: _739  and  _740
REMARK  300  A    between atoms: _745  and  _746
REMARK  301  A    between atoms: _748  and  _750
REMARK  302  A    between atoms: _750  and  _751
REMARK  303  A    between atoms: _750  and  _753
REMARK  304  A    between atoms: _753  and  _754
REMARK  305  A    between atoms: _757  and  _759
REMARK  306  A    between atoms: _759  and  _760
REMARK  307  A    between atoms: _759  and  _762
REMARK  308  A    between atoms: _762  and  _763
REMARK  309  A    between atoms: _766  and  _768
REMARK  310  A    between atoms: _768  and  _769
REMARK  311  A    between atoms: _768  and  _771
REMARK  312  A    between atoms: _771  and  _772
REMARK  313  A    between atoms: _773  and  _775
REMARK  314  A    between atoms: _775  and  _776
REMARK  315  A    between atoms: _775  and  _778
REMARK  316  A    between atoms: _781  and  _783
REMARK  317  A    between atoms: _783  and  _784
REMARK  318  A    between atoms: _783  and  _786
REMARK  319  A    between atoms: _786  and  _787
REMARK  320  A    between atoms: _787  and  _788
REMARK  321  A    between atoms: _791  and  _793
REMARK  322  A    between atoms: _793  and  _794
REMARK  323  A    between atoms: _793  and  _796
REMARK  324  A    between atoms: _796  and  _797
REMARK  325  A    between atoms: _807  and  _809
REMARK  326  A    between atoms: _809  and  _810
REMARK  327  A    between atoms: _809  and  _812
REMARK  328  A    between atoms: _812  and  _813
REMARK  329  A    between atoms: _816  and  _818
REMARK  330  A    between atoms: _818  and  _819
REMARK  331  A    between atoms: _818  and  _821
REMARK  332  A    between atoms: _821  and  _822
REMARK  333  A    between atoms: _822  and  _823
REMARK  334  A    between atoms: _823  and  _824
REMARK  335  A    between atoms: _833  and  _835
REMARK  336  A    between atoms: _835  and  _836
REMARK  337  A    between atoms: _835  and  _838
REMARK  338  A    between atoms: _838  and  _839
REMARK  339  A    between atoms: _844  and  _845
REMARK                            x       y       z     vdW  Elec       q    Type
REMARK                         _______ _______ _______ _____ _____    ______ ____
ROOT
ATOM      1  CA  GLN A   3      47.320  49.744 -11.291  0.00  0.00    +0.149 C 
ENDROOT
BRANCH   1   3
ATOM      2  C   GLN A   2      48.718  51.540 -10.483  0.00  0.00    +0.241 C 
ATOM      3  N   GLN A   3      47.955  50.494 -10.217  0.00  0.00    -0.297 N 
ATOM      4  H   GLN A   3      47.807  50.204  -9.229  0.00  0.00    +0.150 HD
ATOM      5  O   GLN A   2      48.943  51.933 -11.622  0.00  0.00    -0.273 OA
BRANCH   2   6
ATOM      6  CA  GLN A   2      49.325  52.249  -9.293  0.00  0.00    +0.149 C 
BRANCH   6   9
ATOM      7  C   TYR A   1      51.602  52.267  -8.454  0.00  0.00    +0.239 C 
ATOM      8  O   TYR A   1      51.253  52.525  -7.304  0.00  0.00    -0.274 OA
ATOM      9  N   GLN A   2      50.764  52.189  -9.479  0.00  0.00    -0.297 N 
ATOM     10  H   GLN A   2      51.147  52.082 -10.440  0.00  0.00    +0.150 HD
BRANCH   7  11
ATOM     11  CA  TYR A   1      53.051  52.047  -8.810  0.00  0.00    +0.149 C 
BRANCH  11  12
ATOM     12  N   TYR A   1      54.000  52.575  -7.848  0.00  0.00    -0.238 NA
ATOM     13  H   TYR A   1      53.690  52.829  -6.888  0.00  0.00    +0.142 HD
ENDBRANCH  11  12
BRANCH  11  14
ATOM     14  CB  TYR A   1      53.277  50.531  -8.979  0.00  0.00    +0.053 C 
BRANCH  14  15
ATOM     15  CG  TYR A   1      53.537  49.815  -7.668  0.00  0.00    -0.020 A 
ATOM     16  CD2 TYR A   1      52.495  49.506  -6.780  0.00  0.00    -0.001 A 
ATOM     17  CE2 TYR A   1      52.767  48.873  -5.551  0.00  0.00    +0.036 A 
ATOM     18  CZ  TYR A   1      54.086  48.557  -5.215  0.00  0.00    +0.134 A 
ATOM     19  CE1 TYR A   1      55.116  48.857  -6.083  0.00  0.00    +0.036 A 
ATOM     20  CD1 TYR A   1      54.837  49.478  -7.298  0.00  0.00    -0.001 A 
BRANCH  18  21
ATOM     21  OH  TYR A   1      54.401  47.967  -4.007  0.00  0.00    -0.506 OA
ATOM     22  HH  TYR A   1      54.857  47.104  -4.172  0.00  0.00    +0.292 HD
ENDBRANCH  18  21
ENDBRANCH  14  15
ENDBRANCH  11  14
ENDBRANCH   7  11
ENDBRANCH   6   9
BRANCH   6  23
ATOM     23  CB  GLN A   2      48.774  53.668  -9.239  0.00  0.00    +0.039 C 
BRANCH  23  24
ATOM     24  CG  GLN A   2      47.291  53.631  -8.878  0.00  0.00    +0.087 C 
BRANCH  24  25
ATOM     25  CD  GLN A   2      46.649  54.996  -8.806  0.00  0.00    +0.219 C 
ATOM     26  NE2 GLN A   2      46.450  55.494  -7.594  0.00  0.00    -0.329 N 
ATOM     27 HE21 GLN A   2      46.739  54.952  -6.755  0.00  0.00    +0.145 HD
ATOM     28 HE22 GLN A   2      46.005  56.427  -7.482  0.00  0.00    +0.145 HD
ATOM     29  OE1 GLN A   2      46.327  55.593  -9.835  0.00  0.00    -0.275 OA
ENDBRANCH  24  25
ENDBRANCH  23  24
ENDBRANCH   6  23
ENDBRANCH   2   6
ENDBRANCH   1   3
BRANCH   1  30
ATOM     30  C   GLN A   3      45.861  49.496 -10.972  0.00  0.00    +0.241 C 
ATOM     31  O   GLN A   3      45.497  49.261  -9.822  0.00  0.00    -0.273 OA
ATOM     32  N   TYR A   4      45.043  49.524 -12.017  0.00  0.00    -0.297 N 
ATOM     33  H   TYR A   4      45.454  49.699 -12.956  0.00  0.00    +0.150 HD
BRANCH  32  34
ATOM     34  CA  TYR A   4      43.601  49.323 -11.924  0.00  0.00    +0.153 C 
BRANCH  34  35
ATOM     35  C   TYR A   4      43.203  48.069 -12.687  0.00  0.00    +0.241 C 
ATOM     36  N   ALA A   5      42.125  47.439 -12.229  0.00  0.00    -0.297 N 
ATOM     37  H   ALA A   5      41.678  47.799 -11.362  0.00  0.00    +0.150 HD
ATOM     38  O   TYR A   4      43.831  47.737 -13.696  0.00  0.00    -0.273 OA
BRANCH  36  39
ATOM     39  CA  ALA A   5      41.534  46.270 -12.876  0.00  0.00    +0.149 C 
ATOM     40  CB  ALA A   5      41.923  44.976 -12.141  0.00  0.00    +0.031 C 
BRANCH  39  41
ATOM     41  C   ALA A   5      40.024  46.442 -12.828  0.00  0.00    +0.241 C 
ATOM     42  O   ALA A   5      39.486  47.015 -11.873  0.00  0.00    -0.273 OA
ATOM     43  N   TYR A   6      39.337  45.977 -13.868  0.00  0.00    -0.298 N 
ATOM     44  H   TYR A   6      39.857  45.569 -14.671  0.00  0.00    +0.150 HD
BRANCH  43  45
ATOM     45  CA  TYR A   6      37.885  46.020 -13.921  0.00  0.00    +0.141 C 
BRANCH  45  46
ATOM     46  C   TYR A   6      37.484  44.565 -14.138  0.00  0.00    +0.227 C 
ATOM     47  O   TYR A   6      37.946  43.932 -15.089  0.00  0.00    -0.286 OA
ENDBRANCH  45  46
BRANCH  45  48
ATOM     48  CB  TYR A   6      37.370  46.882 -15.085  0.00  0.00    +0.054 C 
BRANCH  48  49
ATOM     49  CG  TYR A   6      35.850  46.952 -15.175  0.00  0.00    -0.020 A 
ATOM     50  CD2 TYR A   6      35.077  47.203 -14.042  0.00  0.00    -0.001 A 
ATOM     51  CE2 TYR A   6      33.686  47.311 -14.115  0.00  0.00    +0.036 A 
ATOM     52  CZ  TYR A   6      33.042  47.163 -15.330  0.00  0.00    +0.134 A 
ATOM     53  CE1 TYR A   6      33.778  46.910 -16.479  0.00  0.00    +0.036 A 
ATOM     54  CD1 TYR A   6      35.184  46.805 -16.398  0.00  0.00    -0.001 A 
BRANCH  52  55
ATOM     55  OH  TYR A   6      31.671  47.282 -15.363  0.00  0.00    -0.506 OA
ATOM     56  HH  TYR A   6      31.276  46.440 -15.703  0.00  0.00    +0.292 HD
ENDBRANCH  52  55
ENDBRANCH  48  49
ENDBRANCH  45  48
ENDBRANCH  43  45
ENDBRANCH  39  41
ENDBRANCH  36  39
ENDBRANCH  34  35
BRANCH  34  57
ATOM     57  CB  TYR A   4      42.860  50.446 -12.630  0.00  0.00    +0.055 C 
BRANCH  57  58
ATOM     58  CG  TYR A   4      42.562  51.672 -11.820  0.00  0.00    -0.020 A 
ATOM     59  CD2 TYR A   4      41.254  51.947 -11.447  0.00  0.00    -0.001 A 
ATOM     60  CE2 TYR A   4      40.937  53.078 -10.728  0.00  0.00    +0.036 A 
ATOM     61  CZ  TYR A   4      41.933  53.961 -10.369  0.00  0.00    +0.134 A 
ATOM     62  CE1 TYR A   4      43.261  53.724 -10.718  0.00  0.00    +0.036 A 
ATOM     63  CD1 TYR A   4      43.569  52.561 -11.453  0.00  0.00    -0.001 A 
BRANCH  61  64
ATOM     64  OH  TYR A   4      41.543  55.095  -9.671  0.00  0.00    -0.506 OA
ATOM     65  HH  TYR A   4      42.339  55.648  -9.471  0.00  0.00    +0.292 HD
ENDBRANCH  61  64
ENDBRANCH  57  58
ENDBRANCH  34  57
ENDBRANCH  32  34
ENDBRANCH   1  30
BRANCH   1  66
ATOM     66  CB  GLN A   3      48.043  48.409 -11.485  0.00  0.00    +0.039 C 
BRANCH  66  67
ATOM     67  CG  GLN A   3      49.496  48.597 -11.843  0.00  0.00    +0.087 C 
BRANCH  67  68
ATOM     68  CD  GLN A   3      50.222  47.296 -12.072  0.00  0.00    +0.219 C 
ATOM     69  NE2 GLN A   3      49.536  46.185 -11.846  0.00  0.00    -0.329 N 
ATOM     70 HE21 GLN A   3      48.547  46.240 -11.531  0.00  0.00    +0.145 HD
ATOM     71 HE22 GLN A   3      49.987  45.258 -11.984  0.00  0.00    +0.145 HD
ATOM     72  OE1 GLN A   3      51.400  47.292 -12.448  0.00  0.00    -0.275 OA
ENDBRANCH  67  68
ENDBRANCH  66  67
ENDBRANCH   1  66
TORSDOF 27
REMARK  Name = ../refined-set-2016/1fzo/1fzo_pocket.pdb
REMARK  339 active torsions:
REMARK  status: ('A' for Active; 'I' for Inactive)
REMARK    1  A    between atoms: _1  and  _3
REMARK    2  A    between atoms: _3  and  _4
REMARK    3  A    between atoms: _3  and  _6
REMARK    4  A    between atoms: _6  and  _7
REMARK    5  A    between atoms: _10  and  _12
REMARK    6  A    between atoms: _12  and  _13
REMARK    7  A    between atoms: _12  and  _15
REMARK    8  A    between atoms: _15  and  _16
REMARK    9  A    between atoms: _16  and  _17
REMARK   10  A    between atoms: _17  and  _18
REMARK   11  A    between atoms: _27  and  _29
REMARK   12  A    between atoms: _29  and  _30
REMARK   13  A    between atoms: _29  and  _32
REMARK   14  A    between atoms: _32  and  _33
REMARK   15  A    between atoms: _38  and  _39
REMARK   16  A    between atoms: _41  and  _43
REMARK   17  A    between atoms: _43  and  _44
REMARK   18  A    between atoms: _43  and  _46
REMARK   19  A    between atoms: _46  and  _47
REMARK   20  A    between atoms: _53  and  _55
REMARK   21  A    between atoms: _55  and  _56
REMARK   22  A    between atoms: _55  and  _58
REMARK   23  A    between atoms: _61  and  _63
REMARK   24  A    between atoms: _63  and  _64
REMARK   25  A    between atoms: _63  and  _66
REMARK   26  A    between atoms: _66  and  _67
REMARK   27  A    between atoms: _70  and  _72
REMARK   28  A    between atoms: _72  and  _73
REMARK   29  A    between atoms: _72  and  _75
REMARK   30  A    between atoms: _75  and  _76
REMARK   31  A    between atoms: _82  and  _84
REMARK   32  A    between atoms: _84  and  _85
REMARK   33  A    between atoms: _84  and  _87
REMARK   34  A    between atoms: _87  and  _88
REMARK   35  A    between atoms: _91  and  _93
REMARK   36  A    between atoms: _93  and  _94
REMARK   37  A    between atoms: _93  and  _96
REMARK   38  A    between atoms: _96  and  _97
REMARK   39  A    between atoms: _99  and  _101
REMARK   40  A    between atoms: _101  and  _102
REMARK   41  A    between atoms: _101  and  _104
REMARK   42  A    between atoms: _107  and  _109
REMARK   43  A    between atoms: _109  and  _110
REMARK   44  A    between atoms: _112  and  _114
REMARK   45  A    between atoms: _114  and  _115
REMARK   46  A    between atoms: _114  and  _117
REMARK   47  A    between atoms: _120  and  _122
REMARK   48  A    between atoms: _122  and  _123
REMARK   49  A    between atoms: _122  and  _125
REMARK   50  A    between atoms: _125  and  _126
REMARK   51  A    between atoms: _132  and  _134
REMARK   52  A    between atoms: _134  and  _135
REMARK   53  A    between atoms: _134  and  _137
REMARK   54  A    between atoms: _140  and  _142
REMARK   55  A    between atoms: _142  and  _143
REMARK   56  A    between atoms: _142  and  _145
REMARK   57  A    between atoms: _145  and  _146
REMARK   58  A    between atoms: _151  and  _152
REMARK   59  A    between atoms: _154  and  _156
REMARK   60  A    between atoms: _156  and  _157
REMARK   61  A    between atoms: _156  and  _159
REMARK   62  A    between atoms: _159  and  _160
REMARK   63  A    between atoms: _160  and  _161
REMARK   64  A    between atoms: _163  and  _165
REMARK   65  A    between atoms: _165  and  _166
REMARK   66  A    between atoms: _165  and  _168
REMARK   67  A    between atoms: _168  and  _169
REMARK   68  A    between atoms: _169  and  _170
REMARK   69  A    between atoms: _173  and  _175
REMARK   70  A    between atoms: _175  and  _176
REMARK   71  A    between atoms: _175  and  _178
REMARK   72  A    between atoms: _178  and  _179
REMARK   73  A    between atoms: _179  and  _180
REMARK   74  A    between atoms: _183  and  _185
REMARK   75  A    between atoms: _185  and  _186
REMARK   76  A    between atoms: _185  and  _188
REMARK   77  A    between atoms: _188  and  _189
REMARK   78  A    between atoms: _194  and  _195
REMARK   79  A    between atoms: _197  and  _199
REMARK   80  A    between atoms: _199  and  _200
REMARK   81  A    between atoms: _199  and  _202
REMARK   82  A    between atoms: _202  and  _203
REMARK   83  A    between atoms: _213  and  _215
REMARK   84  A    between atoms: _215  and  _216
REMARK   85  A    between atoms: _215  and  _218
REMARK   86  A    between atoms: _218  and  _219
REMARK   87  A    between atoms: _219  and  _220
REMARK   88  A    between atoms: _223  and  _225
REMARK   89  A    between atoms: _225  and  _226
REMARK   90  A    between atoms: _225  and  _228
REMARK   91  A    between atoms: _228  and  _229
REMARK   92  A    between atoms: _229  and  _230
REMARK   93  A    between atoms: _230  and  _231
REMARK   94  A    between atoms: _240  and  _242
REMARK   95  A    between atoms: _242  and  _243
REMARK   96  A    between atoms: _242  and  _245
REMARK   97  A    between atoms: _245  and  _246
REMARK   98  A    between atoms: _246  and  _247
REMARK   99  A    between atoms: _250  and  _252
REMARK  100  A    between atoms: _252  and  _253
REMARK  101  A    between atoms: _252  and  _255
REMARK  102  A    between atoms: _255  and  _256
REMARK  103  A    between atoms: _259  and  _261
REMARK  104  A    between atoms: _261  and  _262
REMARK  105  A    between atoms: _261  and  _264
REMARK  106  A    between atoms: _264  and  _265
REMARK  107  A    between atoms: _265  and  _266
REMARK  108  A    between atoms: _271  and  _273
REMARK  109  A    between atoms: _273  and  _274
REMARK  110  A    between atoms: _273  and  _276
REMARK  111  A    between atoms: _276  and  _277
REMARK  112  A    between atoms: _277  and  _278
REMARK  113  A    between atoms: _278  and  _279
REMARK  114  A    between atoms: _279  and  _280
REMARK  115  A    between atoms: _284  and  _286
REMARK  116  A    between atoms: _286  and  _287
REMARK  117  A    between atoms: _290  and  _292
REMARK  118  A    between atoms: _292  and  _293
REMARK  119  A    between atoms: _295  and  _297
REMARK  120  A    between atoms: _297  and  _298
REMARK  121  A    between atoms: _297  and  _300
REMARK  122  A    between atoms: _300  and  _301
REMARK  123  A    between atoms: _306  and  _308
REMARK  124  A    between atoms: _308  and  _309
REMARK  125  A    between atoms: _308  and  _311
REMARK  126  A    between atoms: _311  and  _312
REMARK  127  A    between atoms: _312  and  _313
REMARK  128  A    between atoms: _316  and  _318
REMARK  129  A    between atoms: _318  and  _319
REMARK  130  A    between atoms: _318  and  _321
REMARK  131  A    between atoms: _321  and  _322
REMARK  132  A    between atoms: _322  and  _323
REMARK  133  A    between atoms: _328  and  _330
REMARK  134  A    between atoms: _330  and  _331
REMARK  135  A    between atoms: _330  and  _333
REMARK  136  A    between atoms: _333  and  _334
REMARK  137  A    between atoms: _336  and  _338
REMARK  138  A    between atoms: _338  and  _339
REMARK  139  A    between atoms: _338  and  _341
REMARK  140  A    between atoms: _341  and  _342
REMARK  141  A    between atoms: _348  and  _350
REMARK  142  A    between atoms: _350  and  _351
REMARK  143  A    between atoms: _350  and  _353
REMARK  144  A    between atoms: _356  and  _358
REMARK  145  A    between atoms: _358  and  _359
REMARK  146  A    between atoms: _358  and  _361
REMARK  147  A    between atoms: _361  and  _362
REMARK  148  A    between atoms: _365  and  _367
REMARK  149  A    between atoms: _367  and  _368
REMARK  150  A    between atoms: _367  and  _370
REMARK  151  A    between atoms: _370  and  _371
REMARK  152  A    between atoms: _374  and  _376
REMARK  153  A    between atoms: _376  and  _377
REMARK  154  A    between atoms: _376  and  _379
REMARK  155  A    between atoms: _379  and  _380
REMARK  156  A    between atoms: _383  and  _385
REMARK  157  A    between atoms: _385  and  _386
REMARK  158  A    between atoms: _385  and  _388
REMARK  159  A    between atoms: _388  and  _389
REMARK  160  A    between atoms: _392  and  _394
REMARK  161  A    between atoms: _394  and  _395
REMARK  162  A    between atoms: _394  and  _397
REMARK  163  A    between atoms: _397  and  _398
REMARK  164  A    between atoms: _403  and  _404
REMARK  165  A    between atoms: _406  and  _408
REMARK  166  A    between atoms: _408  and  _409
REMARK  167  A    between atoms: _408  and  _411
REMARK  168  A    between atoms: _411  and  _412
REMARK  169  A    between atoms: _417  and  _418
REMARK  170  A    between atoms: _420  and  _422
REMARK  171  A    between atoms: _422  and  _423
REMARK  172  A    between atoms: _422  and  _425
REMARK  173  A    between atoms: _425  and  _426
REMARK  174  A    between atoms: _429  and  _431
REMARK  175  A    between atoms: _431  and  _432
REMARK  176  A    between atoms: _431  and  _434
REMARK  177  A    between atoms: _434  and  _435
REMARK  178  A    between atoms: _435  and  _436
REMARK  179  A    between atoms: _441  and  _443
REMARK  180  A    between atoms: _443  and  _444
REMARK  181  A    between atoms: _443  and  _446
REMARK  182  A    between atoms: _449  and  _451
REMARK  183  A    between atoms: _451  and  _452
REMARK  184  A    between atoms: _451  and  _454
REMARK  185  A    between atoms: _454  and  _455
REMARK  186  A    between atoms: _458  and  _460
REMARK  187  A    between atoms: _460  and  _461
REMARK  188  A    between atoms: _460  and  _463
REMARK  189  A    between atoms: _463  and  _464
REMARK  190  A    between atoms: _466  and  _468
REMARK  191  A    between atoms: _468  and  _469
REMARK  192  A    between atoms: _471  and  _473
REMARK  193  A    between atoms: _473  and  _474
REMARK  194  A    between atoms: _473  and  _476
REMARK  195  A    between atoms: _476  and  _477
REMARK  196  A    between atoms: _477  and  _772
REMARK  197  A    between atoms: _478  and  _480
REMARK  198  A    between atoms: _480  and  _481
REMARK  199  A    between atoms: _480  and  _483
REMARK  200  A    between atoms: _483  and  _484
REMARK  201  A    between atoms: _489  and  _490
REMARK  202  A    between atoms: _492  and  _494
REMARK  203  A    between atoms: _494  and  _495
REMARK  204  A    between atoms: _494  and  _497
REMARK  205  A    between atoms: _497  and  _498
REMARK  206  A    between atoms: _498  and  _499
REMARK  207  A    between atoms: _504  and  _506
REMARK  208  A    between atoms: _506  and  _507
REMARK  209  A    between atoms: _506  and  _509
REMARK  210  A    between atoms: _509  and  _510
REMARK  211  A    between atoms: _510  and  _511
REMARK  212  A    between atoms: _516  and  _518
REMARK  213  A    between atoms: _518  and  _519
REMARK  214  A    between atoms: _518  and  _521
REMARK  215  A    between atoms: _521  and  _522
REMARK  216  A    between atoms: _527  and  _528
REMARK  217  A    between atoms: _530  and  _532
REMARK  218  A    between atoms: _532  and  _533
REMARK  219  A    between atoms: _536  and  _538
REMARK  220  A    between atoms: _538  and  _539
REMARK  221  A    between atoms: _538  and  _541
REMARK  222  A    between atoms: _541  and  _542
REMARK  223  A    between atoms: _547  and  _548
REMARK  224  A    between atoms: _550  and  _552
REMARK  225  A    between atoms: _552  and  _553
REMARK  226  A    between atoms: _552  and  _555
REMARK  227  A    between atoms: _555  and  _556
REMARK  228  A    between atoms: _561  and  _562
REMARK  229  A    between atoms: _564  and  _566
REMARK  230  A    between atoms: _566  and  _567
REMARK  231  A    between atoms: _566  and  _569
REMARK  232  A    between atoms: _569  and  _570
REMARK  233  A    between atoms: _573  and  _575
REMARK  234  A    between atoms: _575  and  _576
REMARK  235  A    between atoms: _575  and  _578
REMARK  236  A    between atoms: _578  and  _579
REMARK  237  A    between atoms: _589  and  _591
REMARK  238  A    between atoms: _591  and  _592
REMARK  239  A    between atoms: _595  and  _597
REMARK  240  A    between atoms: _597  and  _598
REMARK  241  A    between atoms: _601  and  _603
REMARK  242  A    between atoms: _603  and  _604
REMARK  243  A    between atoms: _603  and  _606
REMARK  244  A    between atoms: _606  and  _607
REMARK  245  A    between atoms: _610  and  _612
REMARK  246  A    between atoms: _612  and  _613
REMARK  247  A    between atoms: _612  and  _615
REMARK  248  A    between atoms: _615  and  _616
REMARK  249  A    between atoms: _619  and  _621
REMARK  250  A    between atoms: _621  and  _622
REMARK  251  A    between atoms: _621  and  _624
REMARK  252  A    between atoms: _624  and  _625
REMARK  253  A    between atoms: _628  and  _630
REMARK  254  A    between atoms: _630  and  _631
REMARK  255  A    between atoms: _630  and  _633
REMARK  256  A    between atoms: _633  and  _634
REMARK  257  A    between atoms: _634  and  _635
REMARK  258  A    between atoms: _635  and  _636
REMARK  259  A    between atoms: _636  and  _637
REMARK  260  A    between atoms: _641  and  _643
REMARK  261  A    between atoms: _643  and  _644
REMARK  262  A    between atoms: _643  and  _646
REMARK  263  A    between atoms: _646  and  _647
REMARK  264  A    between atoms: _652  and  _654
REMARK  265  A    between atoms: _654  and  _655
REMARK  266  A    between atoms: _654  and  _657
REMARK  267  A    between atoms: _657  and  _658
REMARK  268  A    between atoms: _658  and  _659
REMARK  269  A    between atoms: _659  and  _660
REMARK  270  A    between atoms: _660  and  _661
REMARK  271  A    between atoms: _665  and  _667
REMARK  272  A    between atoms: _667  and  _668
REMARK  273  A    between atoms: _667  and  _670
REMARK  274  A    between atoms: _670  and  _671
REMARK  275  A    between atoms: _681  and  _683
REMARK  276  A    between atoms: _683  and  _684
REMARK  277  A    between atoms: _687  and  _689
REMARK  278  A    between atoms: _689  and  _690
REMARK  279  A    between atoms: _692  and  _694
REMARK  280  A    between atoms: _694  and  _695
REMARK  281  A    between atoms: _694  and  _697
REMARK  282  A    between atoms: _697  and  _698
REMARK  283  A    between atoms: _698  and  _699
REMARK  284  A    between atoms: _702  and  _704
REMARK  285  A    between atoms: _704  and  _705
REMARK  286  A    between atoms: _708  and  _710
REMARK  287  A    between atoms: _710  and  _711
REMARK  288  A    between atoms: _710  and  _713
REMARK  289  A    between atoms: _713  and  _714
REMARK  290  A    between atoms: _714  and  _715
REMARK  291  A    between atoms: _715  and  _716
REMARK  292  A    between atoms: _725  and  _727
REMARK  293  A    between atoms: _727  and  _728
REMARK  294  A    between atoms: _727  and  _730
REMARK  295  A    between atoms: _730  and  _731
REMARK  296  A    between atoms: _734  and  _736
REMARK  297  A    between atoms: _736  and  _737
REMARK  298  A    between atoms: _736  and  _739
REMARK  299  A    between atoms: _739  and  _740
REMARK  300  A    between atoms: _745  and  _746
REMARK  301  A    between atoms: _748  and  _750
REMARK  302  A    between atoms: _750  and  _751
REMARK  303  A    between atoms: _750  and  _753
REMARK  304  A    between atoms: _753  and  _754
REMARK  305  A    between atoms: _757  and  _759
REMARK  306  A    between atoms: _759  and  _760
REMARK  307  A    between atoms: _759  and  _762
REMARK  308  A    between atoms: _762  and  _763
REMARK  309  A    between atoms: _766  and  _768
REMARK  310  A    between atoms: _768  and  _769
REMARK  311  A    between atoms: _768  and  _771
REMARK  312  A    between atoms: _771  and  _772
REMARK  313  A    between atoms: _773  and  _775
REMARK  314  A    between atoms: _775  and  _776
REMARK  315  A    between atoms: _775  and  _778
REMARK  316  A    between atoms: _781  and  _783
REMARK  317  A    between atoms: _783  and  _784
REMARK  318  A    between atoms: _783  and  _786
REMARK  319  A    between atoms: _786  and  _787
REMARK  320  A    between atoms: _787  and  _788
REMARK  321  A    between atoms: _791  and  _793
REMARK  322  A    between atoms: _793  and  _794
REMARK  323  A    between atoms: _793  and  _796
REMARK  324  A    between atoms: _796  and  _797
REMARK  325  A    between atoms: _807  and  _809
REMARK  326  A    between atoms: _809  and  _810
REMARK  327  A    between atoms: _809  and  _812
REMARK  328  A    between atoms: _812  and  _813
REMARK  329  A    between atoms: _816  and  _818
REMARK  330  A    between atoms: _818  and  _819
REMARK  331  A    between atoms: _818  and  _821
REMARK  332  A    between atoms: _821  and  _822
REMARK  333  A    between atoms: _822  and  _823
REMARK  334  A    between atoms: _823  and  _824
REMARK  335  A    between atoms: _833  and  _835
REMARK  336  A    between atoms: _835  and  _836
REMARK  337  A    between atoms: _835  and  _838
REMARK  338  A    between atoms: _838  and  _839
REMARK  339  A    between atoms: _844  and  _845
REMARK                            x       y       z     vdW  Elec       q    Type
REMARK                         _______ _______ _______ _____ _____    ______ ____
ROOT
ATOM      1  CA  TYR A   1      42.436  48.192 -17.032  0.00  0.00    +0.149 C 
ENDROOT
BRANCH   1   2
ATOM      2  C   TYR A   1      43.454  49.260 -17.426  0.00  0.00    +0.239 C 
ATOM      3  N   ILE A   2      44.050  49.903 -16.428  0.00  0.00    -0.298 N 
ATOM      4  H   ILE A   2      43.796  49.678 -15.445  0.00  0.00    +0.150 HD
ATOM      5  O   TYR A   1      43.693  49.503 -18.616  0.00  0.00    -0.274 OA
BRANCH   3   6
ATOM      6  CA  ILE A   2      45.057  50.921 -16.700  0.00  0.00    +0.137 C 
BRANCH   6   7
ATOM      7  C   ILE A   2      46.120  50.875 -15.615  0.00  0.00    +0.227 C 
ATOM      8  O   ILE A   2      45.843  50.499 -14.466  0.00  0.00    -0.286 OA
ENDBRANCH   6   7
BRANCH   6   9
ATOM      9  CB  ILE A   2      44.416  52.337 -16.789  0.00  0.00    +0.026 C 
ATOM     10  CG2 ILE A   2      44.054  52.869 -15.387  0.00  0.00    +0.002 C 
BRANCH   9  11
ATOM     11  CG1 ILE A   2      45.389  53.304 -17.456  0.00  0.00    +0.002 C 
ATOM     12  CD1 ILE A   2      44.744  54.637 -17.810  0.00  0.00    +0.000 C 
ENDBRANCH   9  11
ENDBRANCH   6   9
ENDBRANCH   3   6
ENDBRANCH   1   2
BRANCH   1  13
ATOM     13  N   TYR A   1      43.178  47.094 -16.436  0.00  0.00    -0.238 NA
ATOM     14  H   TYR A   1      43.737  47.266 -15.576  0.00  0.00    +0.142 HD
ENDBRANCH   1  13
BRANCH   1  15
ATOM     15  CB  TYR A   1      41.422  48.756 -16.030  0.00  0.00    +0.053 C 
BRANCH  15  16
ATOM     16  CG  TYR A   1      40.575  49.869 -16.616  0.00  0.00    -0.020 A 
ATOM     17  CD2 TYR A   1      40.819  51.206 -16.285  0.00  0.00    -0.001 A 
ATOM     18  CE2 TYR A   1      40.087  52.237 -16.863  0.00  0.00    +0.036 A 
ATOM     19  CZ  TYR A   1      39.096  51.936 -17.777  0.00  0.00    +0.134 A 
ATOM     20  CE1 TYR A   1      38.826  50.623 -18.121  0.00  0.00    +0.036 A 
ATOM     21  CD1 TYR A   1      39.570  49.592 -17.537  0.00  0.00    -0.001 A 
BRANCH  19  22
ATOM     22  OH  TYR A   1      38.368  52.949 -18.346  0.00  0.00    -0.506 OA
ATOM     23  HH  TYR A   1      38.977  53.555 -18.838  0.00  0.00    +0.292 HD
ENDBRANCH  19  22
ENDBRANCH  15  16
ENDBRANCH   1  15
TORSDOF 9
REMARK  Name = ../refined-set-2016/1fzo/1fzo_pocket.pdb
REMARK  339 active torsions:
REMARK  status: ('A' for Active; 'I' for Inactive)
REMARK    1  A    between atoms: _1  and  _3
REMARK    2  A    between atoms: _3  and  _4
REMARK    3  A    between atoms: _3  and  _6
REMARK    4  A    between atoms: _6  and  _7
REMARK    5  A    between atoms: _10  and  _12
REMARK    6  A    between atoms: _12  and  _13
REMARK    7  A    between atoms: _12  and  _15
REMARK    8  A    between atoms: _15  and  _16
REMARK    9  A    between atoms: _16  and  _17
REMARK   10  A    between atoms: _17  and  _18
REMARK   11  A    between atoms: _27  and  _29
REMARK   12  A    between atoms: _29  and  _30
REMARK   13  A    between atoms: _29  and  _32
REMARK   14  A    between atoms: _32  and  _33
REMARK   15  A    between atoms: _38  and  _39
REMARK   16  A    between atoms: _41  and  _43
REMARK   17  A    between atoms: _43  and  _44
REMARK   18  A    between atoms: _43  and  _46
REMARK   19  A    between atoms: _46  and  _47
REMARK   20  A    between atoms: _53  and  _55
REMARK   21  A    between atoms: _55  and  _56
REMARK   22  A    between atoms: _55  and  _58
REMARK   23  A    between atoms: _61  and  _63
REMARK   24  A    between atoms: _63  and  _64
REMARK   25  A    between atoms: _63  and  _66
REMARK   26  A    between atoms: _66  and  _67
REMARK   27  A    between atoms: _70  and  _72
REMARK   28  A    between atoms: _72  and  _73
REMARK   29  A    between atoms: _72  and  _75
REMARK   30  A    between atoms: _75  and  _76
REMARK   31  A    between atoms: _82  and  _84
REMARK   32  A    between atoms: _84  and  _85
REMARK   33  A    between atoms: _84  and  _87
REMARK   34  A    between atoms: _87  and  _88
REMARK   35  A    between atoms: _91  and  _93
REMARK   36  A    between atoms: _93  and  _94
REMARK   37  A    between atoms: _93  and  _96
REMARK   38  A    between atoms: _96  and  _97
REMARK   39  A    between atoms: _99  and  _101
REMARK   40  A    between atoms: _101  and  _102
REMARK   41  A    between atoms: _101  and  _104
REMARK   42  A    between atoms: _107  and  _109
REMARK   43  A    between atoms: _109  and  _110
REMARK   44  A    between atoms: _112  and  _114
REMARK   45  A    between atoms: _114  and  _115
REMARK   46  A    between atoms: _114  and  _117
REMARK   47  A    between atoms: _120  and  _122
REMARK   48  A    between atoms: _122  and  _123
REMARK   49  A    between atoms: _122  and  _125
REMARK   50  A    between atoms: _125  and  _126
REMARK   51  A    between atoms: _132  and  _134
REMARK   52  A    between atoms: _134  and  _135
REMARK   53  A    between atoms: _134  and  _137
REMARK   54  A    between atoms: _140  and  _142
REMARK   55  A    between atoms: _142  and  _143
REMARK   56  A    between atoms: _142  and  _145
REMARK   57  A    between atoms: _145  and  _146
REMARK   58  A    between atoms: _151  and  _152
REMARK   59  A    between atoms: _154  and  _156
REMARK   60  A    between atoms: _156  and  _157
REMARK   61  A    between atoms: _156  and  _159
REMARK   62  A    between atoms: _159  and  _160
REMARK   63  A    between atoms: _160  and  _161
REMARK   64  A    between atoms: _163  and  _165
REMARK   65  A    between atoms: _165  and  _166
REMARK   66  A    between atoms: _165  and  _168
REMARK   67  A    between atoms: _168  and  _169
REMARK   68  A    between atoms: _169  and  _170
REMARK   69  A    between atoms: _173  and  _175
REMARK   70  A    between atoms: _175  and  _176
REMARK   71  A    between atoms: _175  and  _178
REMARK   72  A    between atoms: _178  and  _179
REMARK   73  A    between atoms: _179  and  _180
REMARK   74  A    between atoms: _183  and  _185
REMARK   75  A    between atoms: _185  and  _186
REMARK   76  A    between atoms: _185  and  _188
REMARK   77  A    between atoms: _188  and  _189
REMARK   78  A    between atoms: _194  and  _195
REMARK   79  A    between atoms: _197  and  _199
REMARK   80  A    between atoms: _199  and  _200
REMARK   81  A    between atoms: _199  and  _202
REMARK   82  A    between atoms: _202  and  _203
REMARK   83  A    between atoms: _213  and  _215
REMARK   84  A    between atoms: _215  and  _216
REMARK   85  A    between atoms: _215  and  _218
REMARK   86  A    between atoms: _218  and  _219
REMARK   87  A    between atoms: _219  and  _220
REMARK   88  A    between atoms: _223  and  _225
REMARK   89  A    between atoms: _225  and  _226
REMARK   90  A    between atoms: _225  and  _228
REMARK   91  A    between atoms: _228  and  _229
REMARK   92  A    between atoms: _229  and  _230
REMARK   93  A    between atoms: _230  and  _231
REMARK   94  A    between atoms: _240  and  _242
REMARK   95  A    between atoms: _242  and  _243
REMARK   96  A    between atoms: _242  and  _245
REMARK   97  A    between atoms: _245  and  _246
REMARK   98  A    between atoms: _246  and  _247
REMARK   99  A    between atoms: _250  and  _252
REMARK  100  A    between atoms: _252  and  _253
REMARK  101  A    between atoms: _252  and  _255
REMARK  102  A    between atoms: _255  and  _256
REMARK  103  A    between atoms: _259  and  _261
REMARK  104  A    between atoms: _261  and  _262
REMARK  105  A    between atoms: _261  and  _264
REMARK  106  A    between atoms: _264  and  _265
REMARK  107  A    between atoms: _265  and  _266
REMARK  108  A    between atoms: _271  and  _273
REMARK  109  A    between atoms: _273  and  _274
REMARK  110  A    between atoms: _273  and  _276
REMARK  111  A    between atoms: _276  and  _277
REMARK  112  A    between atoms: _277  and  _278
REMARK  113  A    between atoms: _278  and  _279
REMARK  114  A    between atoms: _279  and  _280
REMARK  115  A    between atoms: _284  and  _286
REMARK  116  A    between atoms: _286  and  _287
REMARK  117  A    between atoms: _290  and  _292
REMARK  118  A    between atoms: _292  and  _293
REMARK  119  A    between atoms: _295  and  _297
REMARK  120  A    between atoms: _297  and  _298
REMARK  121  A    between atoms: _297  and  _300
REMARK  122  A    between atoms: _300  and  _301
REMARK  123  A    between atoms: _306  and  _308
REMARK  124  A    between atoms: _308  and  _309
REMARK  125  A    between atoms: _308  and  _311
REMARK  126  A    between atoms: _311  and  _312
REMARK  127  A    between atoms: _312  and  _313
REMARK  128  A    between atoms: _316  and  _318
REMARK  129  A    between atoms: _318  and  _319
REMARK  130  A    between atoms: _318  and  _321
REMARK  131  A    between atoms: _321  and  _322
REMARK  132  A    between atoms: _322  and  _323
REMARK  133  A    between atoms: _328  and  _330
REMARK  134  A    between atoms: _330  and  _331
REMARK  135  A    between atoms: _330  and  _333
REMARK  136  A    between atoms: _333  and  _334
REMARK  137  A    between atoms: _336  and  _338
REMARK  138  A    between atoms: _338  and  _339
REMARK  139  A    between atoms: _338  and  _341
REMARK  140  A    between atoms: _341  and  _342
REMARK  141  A    between atoms: _348  and  _350
REMARK  142  A    between atoms: _350  and  _351
REMARK  143  A    between atoms: _350  and  _353
REMARK  144  A    between atoms: _356  and  _358
REMARK  145  A    between atoms: _358  and  _359
REMARK  146  A    between atoms: _358  and  _361
REMARK  147  A    between atoms: _361  and  _362
REMARK  148  A    between atoms: _365  and  _367
REMARK  149  A    between atoms: _367  and  _368
REMARK  150  A    between atoms: _367  and  _370
REMARK  151  A    between atoms: _370  and  _371
REMARK  152  A    between atoms: _374  and  _376
REMARK  153  A    between atoms: _376  and  _377
REMARK  154  A    between atoms: _376  and  _379
REMARK  155  A    between atoms: _379  and  _380
REMARK  156  A    between atoms: _383  and  _385
REMARK  157  A    between atoms: _385  and  _386
REMARK  158  A    between atoms: _385  and  _388
REMARK  159  A    between atoms: _388  and  _389
REMARK  160  A    between atoms: _392  and  _394
REMARK  161  A    between atoms: _394  and  _395
REMARK  162  A    between atoms: _394  and  _397
REMARK  163  A    between atoms: _397  and  _398
REMARK  164  A    between atoms: _403  and  _404
REMARK  165  A    between atoms: _406  and  _408
REMARK  166  A    between atoms: _408  and  _409
REMARK  167  A    between atoms: _408  and  _411
REMARK  168  A    between atoms: _411  and  _412
REMARK  169  A    between atoms: _417  and  _418
REMARK  170  A    between atoms: _420  and  _422
REMARK  171  A    between atoms: _422  and  _423
REMARK  172  A    between atoms: _422  and  _425
REMARK  173  A    between atoms: _425  and  _426
REMARK  174  A    between atoms: _429  and  _431
REMARK  175  A    between atoms: _431  and  _432
REMARK  176  A    between atoms: _431  and  _434
REMARK  177  A    between atoms: _434  and  _435
REMARK  178  A    between atoms: _435  and  _436
REMARK  179  A    between atoms: _441  and  _443
REMARK  180  A    between atoms: _443  and  _444
REMARK  181  A    between atoms: _443  and  _446
REMARK  182  A    between atoms: _449  and  _451
REMARK  183  A    between atoms: _451  and  _452
REMARK  184  A    between atoms: _451  and  _454
REMARK  185  A    between atoms: _454  and  _455
REMARK  186  A    between atoms: _458  and  _460
REMARK  187  A    between atoms: _460  and  _461
REMARK  188  A    between atoms: _460  and  _463
REMARK  189  A    between atoms: _463  and  _464
REMARK  190  A    between atoms: _466  and  _468
REMARK  191  A    between atoms: _468  and  _469
REMARK  192  A    between atoms: _471  and  _473
REMARK  193  A    between atoms: _473  and  _474
REMARK  194  A    between atoms: _473  and  _476
REMARK  195  A    between atoms: _476  and  _477
REMARK  196  A    between atoms: _477  and  _772
REMARK  197  A    between atoms: _478  and  _480
REMARK  198  A    between atoms: _480  and  _481
REMARK  199  A    between atoms: _480  and  _483
REMARK  200  A    between atoms: _483  and  _484
REMARK  201  A    between atoms: _489  and  _490
REMARK  202  A    between atoms: _492  and  _494
REMARK  203  A    between atoms: _494  and  _495
REMARK  204  A    between atoms: _494  and  _497
REMARK  205  A    between atoms: _497  and  _498
REMARK  206  A    between atoms: _498  and  _499
REMARK  207  A    between atoms: _504  and  _506
REMARK  208  A    between atoms: _506  and  _507
REMARK  209  A    between atoms: _506  and  _509
REMARK  210  A    between atoms: _509  and  _510
REMARK  211  A    between atoms: _510  and  _511
REMARK  212  A    between atoms: _516  and  _518
REMARK  213  A    between atoms: _518  and  _519
REMARK  214  A    between atoms: _518  and  _521
REMARK  215  A    between atoms: _521  and  _522
REMARK  216  A    between atoms: _527  and  _528
REMARK  217  A    between atoms: _530  and  _532
REMARK  218  A    between atoms: _532  and  _533
REMARK  219  A    between atoms: _536  and  _538
REMARK  220  A    between atoms: _538  and  _539
REMARK  221  A    between atoms: _538  and  _541
REMARK  222  A    between atoms: _541  and  _542
REMARK  223  A    between atoms: _547  and  _548
REMARK  224  A    between atoms: _550  and  _552
REMARK  225  A    between atoms: _552  and  _553
REMARK  226  A    between atoms: _552  and  _555
REMARK  227  A    between atoms: _555  and  _556
REMARK  228  A    between atoms: _561  and  _562
REMARK  229  A    between atoms: _564  and  _566
REMARK  230  A    between atoms: _566  and  _567
REMARK  231  A    between atoms: _566  and  _569
REMARK  232  A    between atoms: _569  and  _570
REMARK  233  A    between atoms: _573  and  _575
REMARK  234  A    between atoms: _575  and  _576
REMARK  235  A    between atoms: _575  and  _578
REMARK  236  A    between atoms: _578  and  _579
REMARK  237  A    between atoms: _589  and  _591
REMARK  238  A    between atoms: _591  and  _592
REMARK  239  A    between atoms: _595  and  _597
REMARK  240  A    between atoms: _597  and  _598
REMARK  241  A    between atoms: _601  and  _603
REMARK  242  A    between atoms: _603  and  _604
REMARK  243  A    between atoms: _603  and  _606
REMARK  244  A    between atoms: _606  and  _607
REMARK  245  A    between atoms: _610  and  _612
REMARK  246  A    between atoms: _612  and  _613
REMARK  247  A    between atoms: _612  and  _615
REMARK  248  A    between atoms: _615  and  _616
REMARK  249  A    between atoms: _619  and  _621
REMARK  250  A    between atoms: _621  and  _622
REMARK  251  A    between atoms: _621  and  _624
REMARK  252  A    between atoms: _624  and  _625
REMARK  253  A    between atoms: _628  and  _630
REMARK  254  A    between atoms: _630  and  _631
REMARK  255  A    between atoms: _630  and  _633
REMARK  256  A    between atoms: _633  and  _634
REMARK  257  A    between atoms: _634  and  _635
REMARK  258  A    between atoms: _635  and  _636
REMARK  259  A    between atoms: _636  and  _637
REMARK  260  A    between atoms: _641  and  _643
REMARK  261  A    between atoms: _643  and  _644
REMARK  262  A    between atoms: _643  and  _646
REMARK  263  A    between atoms: _646  and  _647
REMARK  264  A    between atoms: _652  and  _654
REMARK  265  A    between atoms: _654  and  _655
REMARK  266  A    between atoms: _654  and  _657
REMARK  267  A    between atoms: _657  and  _658
REMARK  268  A    between atoms: _658  and  _659
REMARK  269  A    between atoms: _659  and  _660
REMARK  270  A    between atoms: _660  and  _661
REMARK  271  A    between atoms: _665  and  _667
REMARK  272  A    between atoms: _667  and  _668
REMARK  273  A    between atoms: _667  and  _670
REMARK  274  A    between atoms: _670  and  _671
REMARK  275  A    between atoms: _681  and  _683
REMARK  276  A    between atoms: _683  and  _684
REMARK  277  A    between atoms: _687  and  _689
REMARK  278  A    between atoms: _689  and  _690
REMARK  279  A    between atoms: _692  and  _694
REMARK  280  A    between atoms: _694  and  _695
REMARK  281  A    between atoms: _694  and  _697
REMARK  282  A    between atoms: _697  and  _698
REMARK  283  A    between atoms: _698  and  _699
REMARK  284  A    between atoms: _702  and  _704
REMARK  285  A    between atoms: _704  and  _705
REMARK  286  A    between atoms: _708  and  _710
REMARK  287  A    between atoms: _710  and  _711
REMARK  288  A    between atoms: _710  and  _713
REMARK  289  A    between atoms: _713  and  _714
REMARK  290  A    between atoms: _714  and  _715
REMARK  291  A    between atoms: _715  and  _716
REMARK  292  A    between atoms: _725  and  _727
REMARK  293  A    between atoms: _727  and  _728
REMARK  294  A    between atoms: _727  and  _730
REMARK  295  A    between atoms: _730  and  _731
REMARK  296  A    between atoms: _734  and  _736
REMARK  297  A    between atoms: _736  and  _737
REMARK  298  A    between atoms: _736  and  _739
REMARK  299  A    between atoms: _739  and  _740
REMARK  300  A    between atoms: _745  and  _746
REMARK  301  A    between atoms: _748  and  _750
REMARK  302  A    between atoms: _750  and  _751
REMARK  303  A    between atoms: _750  and  _753
REMARK  304  A    between atoms: _753  and  _754
REMARK  305  A    between atoms: _757  and  _759
REMARK  306  A    between atoms: _759  and  _760
REMARK  307  A    between atoms: _759  and  _762
REMARK  308  A    between atoms: _762  and  _763
REMARK  309  A    between atoms: _766  and  _768
REMARK  310  A    between atoms: _768  and  _769
REMARK  311  A    between atoms: _768  and  _771
REMARK  312  A    between atoms: _771  and  _772
REMARK  313  A    between atoms: _773  and  _775
REMARK  314  A    between atoms: _775  and  _776
REMARK  315  A    between atoms: _775  and  _778
REMARK  316  A    between atoms: _781  and  _783
REMARK  317  A    between atoms: _783  and  _784
REMARK  318  A    between atoms: _783  and  _786
REMARK  319  A    between atoms: _786  and  _787
REMARK  320  A    between atoms: _787  and  _788
REMARK  321  A    between atoms: _791  and  _793
REMARK  322  A    between atoms: _793  and  _794
REMARK  323  A    between atoms: _793  and  _796
REMARK  324  A    between atoms: _796  and  _797
REMARK  325  A    between atoms: _807  and  _809
REMARK  326  A    between atoms: _809  and  _810
REMARK  327  A    between atoms: _809  and  _812
REMARK  328  A    between atoms: _812  and  _813
REMARK  329  A    between atoms: _816  and  _818
REMARK  330  A    between atoms: _818  and  _819
REMARK  331  A    between atoms: _818  and  _821
REMARK  332  A    between atoms: _821  and  _822
REMARK  333  A    between atoms: _822  and  _823
REMARK  334  A    between atoms: _823  and  _824
REMARK  335  A    between atoms: _833  and  _835
REMARK  336  A    between atoms: _835  and  _836
REMARK  337  A    between atoms: _835  and  _838
REMARK  338  A    between atoms: _838  and  _839
REMARK  339  A    between atoms: _844  and  _845
REMARK                            x       y       z     vdW  Elec       q    Type
REMARK                         _______ _______ _______ _____ _____    ______ ____
ROOT
ATOM      1  CG  TRP A   1      48.363  56.987 -17.205  0.00  0.00    -0.002 A 
ATOM      2  CD2 TRP A   1      48.174  56.962 -15.799  0.00  0.00    +0.013 A 
ATOM      3  CE3 TRP A   1      48.048  55.933 -14.856  0.00  0.00    +0.001 A 
ATOM      4  CZ3 TRP A   1      47.866  56.276 -13.522  0.00  0.00    +0.000 A 
ATOM      5  CH2 TRP A   1      47.810  57.625 -13.121  0.00  0.00    +0.001 A 
ATOM      6  CZ2 TRP A   1      47.929  58.649 -14.021  0.00  0.00    +0.017 A 
ATOM      7  CE2 TRP A   1      48.110  58.308 -15.362  0.00  0.00    +0.056 A 
ATOM      8  NE1 TRP A   1      48.255  59.107 -16.466  0.00  0.00    -0.352 N 
ATOM      9  HE1 TRP A   1      48.251  60.147 -16.466  0.00  0.00    +0.166 HD
ATOM     10  CD1 TRP A   1      48.406  58.307 -17.571  0.00  0.00    +0.068 A 
ENDROOT
BRANCH   1  11
ATOM     11  CB  TRP A   1      48.505  55.801 -18.090  0.00  0.00    +0.053 C 
BRANCH  11  12
ATOM     12  CA  TRP A   1      49.950  55.378 -18.339  0.00  0.00    +0.137 C 
BRANCH  12  13
ATOM     13  N   TRP A   1      50.791  56.526 -18.649  0.00  0.00    -0.239 NA
ATOM     14  H   TRP A   1      50.479  57.206 -19.372  0.00  0.00    +0.142 HD
ENDBRANCH  12  13
BRANCH  12  15
ATOM     15  C   TRP A   1      49.897  54.404 -19.497  0.00  0.00    +0.224 C 
ATOM     16  O   TRP A   1      50.085  54.779 -20.656  0.00  0.00    -0.287 OA
ENDBRANCH  12  15
ENDBRANCH  11  12
ENDBRANCH   1  11
TORSDOF 4
REMARK  Name = ../refined-set-2016/1fzo/1fzo_pocket.pdb
REMARK  339 active torsions:
REMARK  status: ('A' for Active; 'I' for Inactive)
REMARK    1  A    between atoms: _1  and  _3
REMARK    2  A    between atoms: _3  and  _4
REMARK    3  A    between atoms: _3  and  _6
REMARK    4  A    between atoms: _6  and  _7
REMARK    5  A    between atoms: _10  and  _12
REMARK    6  A    between atoms: _12  and  _13
REMARK    7  A    between atoms: _12  and  _15
REMARK    8  A    between atoms: _15  and  _16
REMARK    9  A    between atoms: _16  and  _17
REMARK   10  A    between atoms: _17  and  _18
REMARK   11  A    between atoms: _27  and  _29
REMARK   12  A    between atoms: _29  and  _30
REMARK   13  A    between atoms: _29  and  _32
REMARK   14  A    between atoms: _32  and  _33
REMARK   15  A    between atoms: _38  and  _39
REMARK   16  A    between atoms: _41  and  _43
REMARK   17  A    between atoms: _43  and  _44
REMARK   18  A    between atoms: _43  and  _46
REMARK   19  A    between atoms: _46  and  _47
REMARK   20  A    between atoms: _53  and  _55
REMARK   21  A    between atoms: _55  and  _56
REMARK   22  A    between atoms: _55  and  _58
REMARK   23  A    between atoms: _61  and  _63
REMARK   24  A    between atoms: _63  and  _64
REMARK   25  A    between atoms: _63  and  _66
REMARK   26  A    between atoms: _66  and  _67
REMARK   27  A    between atoms: _70  and  _72
REMARK   28  A    between atoms: _72  and  _73
REMARK   29  A    between atoms: _72  and  _75
REMARK   30  A    between atoms: _75  and  _76
REMARK   31  A    between atoms: _82  and  _84
REMARK   32  A    between atoms: _84  and  _85
REMARK   33  A    between atoms: _84  and  _87
REMARK   34  A    between atoms: _87  and  _88
REMARK   35  A    between atoms: _91  and  _93
REMARK   36  A    between atoms: _93  and  _94
REMARK   37  A    between atoms: _93  and  _96
REMARK   38  A    between atoms: _96  and  _97
REMARK   39  A    between atoms: _99  and  _101
REMARK   40  A    between atoms: _101  and  _102
REMARK   41  A    between atoms: _101  and  _104
REMARK   42  A    between atoms: _107  and  _109
REMARK   43  A    between atoms: _109  and  _110
REMARK   44  A    between atoms: _112  and  _114
REMARK   45  A    between atoms: _114  and  _115
REMARK   46  A    between atoms: _114  and  _117
REMARK   47  A    between atoms: _120  and  _122
REMARK   48  A    between atoms: _122  and  _123
REMARK   49  A    between atoms: _122  and  _125
REMARK   50  A    between atoms: _125  and  _126
REMARK   51  A    between atoms: _132  and  _134
REMARK   52  A    between atoms: _134  and  _135
REMARK   53  A    between atoms: _134  and  _137
REMARK   54  A    between atoms: _140  and  _142
REMARK   55  A    between atoms: _142  and  _143
REMARK   56  A    between atoms: _142  and  _145
REMARK   57  A    between atoms: _145  and  _146
REMARK   58  A    between atoms: _151  and  _152
REMARK   59  A    between atoms: _154  and  _156
REMARK   60  A    between atoms: _156  and  _157
REMARK   61  A    between atoms: _156  and  _159
REMARK   62  A    between atoms: _159  and  _160
REMARK   63  A    between atoms: _160  and  _161
REMARK   64  A    between atoms: _163  and  _165
REMARK   65  A    between atoms: _165  and  _166
REMARK   66  A    between atoms: _165  and  _168
REMARK   67  A    between atoms: _168  and  _169
REMARK   68  A    between atoms: _169  and  _170
REMARK   69  A    between atoms: _173  and  _175
REMARK   70  A    between atoms: _175  and  _176
REMARK   71  A    between atoms: _175  and  _178
REMARK   72  A    between atoms: _178  and  _179
REMARK   73  A    between atoms: _179  and  _180
REMARK   74  A    between atoms: _183  and  _185
REMARK   75  A    between atoms: _185  and  _186
REMARK   76  A    between atoms: _185  and  _188
REMARK   77  A    between atoms: _188  and  _189
REMARK   78  A    between atoms: _194  and  _195
REMARK   79  A    between atoms: _197  and  _199
REMARK   80  A    between atoms: _199  and  _200
REMARK   81  A    between atoms: _199  and  _202
REMARK   82  A    between atoms: _202  and  _203
REMARK   83  A    between atoms: _213  and  _215
REMARK   84  A    between atoms: _215  and  _216
REMARK   85  A    between atoms: _215  and  _218
REMARK   86  A    between atoms: _218  and  _219
REMARK   87  A    between atoms: _219  and  _220
REMARK   88  A    between atoms: _223  and  _225
REMARK   89  A    between atoms: _225  and  _226
REMARK   90  A    between atoms: _225  and  _228
REMARK   91  A    between atoms: _228  and  _229
REMARK   92  A    between atoms: _229  and  _230
REMARK   93  A    between atoms: _230  and  _231
REMARK   94  A    between atoms: _240  and  _242
REMARK   95  A    between atoms: _242  and  _243
REMARK   96  A    between atoms: _242  and  _245
REMARK   97  A    between atoms: _245  and  _246
REMARK   98  A    between atoms: _246  and  _247
REMARK   99  A    between atoms: _250  and  _252
REMARK  100  A    between atoms: _252  and  _253
REMARK  101  A    between atoms: _252  and  _255
REMARK  102  A    between atoms: _255  and  _256
REMARK  103  A    between atoms: _259  and  _261
REMARK  104  A    between atoms: _261  and  _262
REMARK  105  A    between atoms: _261  and  _264
REMARK  106  A    between atoms: _264  and  _265
REMARK  107  A    between atoms: _265  and  _266
REMARK  108  A    between atoms: _271  and  _273
REMARK  109  A    between atoms: _273  and  _274
REMARK  110  A    between atoms: _273  and  _276
REMARK  111  A    between atoms: _276  and  _277
REMARK  112  A    between atoms: _277  and  _278
REMARK  113  A    between atoms: _278  and  _279
REMARK  114  A    between atoms: _279  and  _280
REMARK  115  A    between atoms: _284  and  _286
REMARK  116  A    between atoms: _286  and  _287
REMARK  117  A    between atoms: _290  and  _292
REMARK  118  A    between atoms: _292  and  _293
REMARK  119  A    between atoms: _295  and  _297
REMARK  120  A    between atoms: _297  and  _298
REMARK  121  A    between atoms: _297  and  _300
REMARK  122  A    between atoms: _300  and  _301
REMARK  123  A    between atoms: _306  and  _308
REMARK  124  A    between atoms: _308  and  _309
REMARK  125  A    between atoms: _308  and  _311
REMARK  126  A    between atoms: _311  and  _312
REMARK  127  A    between atoms: _312  and  _313
REMARK  128  A    between atoms: _316  and  _318
REMARK  129  A    between atoms: _318  and  _319
REMARK  130  A    between atoms: _318  and  _321
REMARK  131  A    between atoms: _321  and  _322
REMARK  132  A    between atoms: _322  and  _323
REMARK  133  A    between atoms: _328  and  _330
REMARK  134  A    between atoms: _330  and  _331
REMARK  135  A    between atoms: _330  and  _333
REMARK  136  A    between atoms: _333  and  _334
REMARK  137  A    between atoms: _336  and  _338
REMARK  138  A    between atoms: _338  and  _339
REMARK  139  A    between atoms: _338  and  _341
REMARK  140  A    between atoms: _341  and  _342
REMARK  141  A    between atoms: _348  and  _350
REMARK  142  A    between atoms: _350  and  _351
REMARK  143  A    between atoms: _350  and  _353
REMARK  144  A    between atoms: _356  and  _358
REMARK  145  A    between atoms: _358  and  _359
REMARK  146  A    between atoms: _358  and  _361
REMARK  147  A    between atoms: _361  and  _362
REMARK  148  A    between atoms: _365  and  _367
REMARK  149  A    between atoms: _367  and  _368
REMARK  150  A    between atoms: _367  and  _370
REMARK  151  A    between atoms: _370  and  _371
REMARK  152  A    between atoms: _374  and  _376
REMARK  153  A    between atoms: _376  and  _377
REMARK  154  A    between atoms: _376  and  _379
REMARK  155  A    between atoms: _379  and  _380
REMARK  156  A    between atoms: _383  and  _385
REMARK  157  A    between atoms: _385  and  _386
REMARK  158  A    between atoms: _385  and  _388
REMARK  159  A    between atoms: _388  and  _389
REMARK  160  A    between atoms: _392  and  _394
REMARK  161  A    between atoms: _394  and  _395
REMARK  162  A    between atoms: _394  and  _397
REMARK  163  A    between atoms: _397  and  _398
REMARK  164  A    between atoms: _403  and  _404
REMARK  165  A    between atoms: _406  and  _408
REMARK  166  A    between atoms: _408  and  _409
REMARK  167  A    between atoms: _408  and  _411
REMARK  168  A    between atoms: _411  and  _412
REMARK  169  A    between atoms: _417  and  _418
REMARK  170  A    between atoms: _420  and  _422
REMARK  171  A    between atoms: _422  and  _423
REMARK  172  A    between atoms: _422  and  _425
REMARK  173  A    between atoms: _425  and  _426
REMARK  174  A    between atoms: _429  and  _431
REMARK  175  A    between atoms: _431  and  _432
REMARK  176  A    between atoms: _431  and  _434
REMARK  177  A    between atoms: _434  and  _435
REMARK  178  A    between atoms: _435  and  _436
REMARK  179  A    between atoms: _441  and  _443
REMARK  180  A    between atoms: _443  and  _444
REMARK  181  A    between atoms: _443  and  _446
REMARK  182  A    between atoms: _449  and  _451
REMARK  183  A    between atoms: _451  and  _452
REMARK  184  A    between atoms: _451  and  _454
REMARK  185  A    between atoms: _454  and  _455
REMARK  186  A    between atoms: _458  and  _460
REMARK  187  A    between atoms: _460  and  _461
REMARK  188  A    between atoms: _460  and  _463
REMARK  189  A    between atoms: _463  and  _464
REMARK  190  A    between atoms: _466  and  _468
REMARK  191  A    between atoms: _468  and  _469
REMARK  192  A    between atoms: _471  and  _473
REMARK  193  A    between atoms: _473  and  _474
REMARK  194  A    between atoms: _473  and  _476
REMARK  195  A    between atoms: _476  and  _477
REMARK  196  A    between atoms: _477  and  _772
REMARK  197  A    between atoms: _478  and  _480
REMARK  198  A    between atoms: _480  and  _481
REMARK  199  A    between atoms: _480  and  _483
REMARK  200  A    between atoms: _483  and  _484
REMARK  201  A    between atoms: _489  and  _490
REMARK  202  A    between atoms: _492  and  _494
REMARK  203  A    between atoms: _494  and  _495
REMARK  204  A    between atoms: _494  and  _497
REMARK  205  A    between atoms: _497  and  _498
REMARK  206  A    between atoms: _498  and  _499
REMARK  207  A    between atoms: _504  and  _506
REMARK  208  A    between atoms: _506  and  _507
REMARK  209  A    between atoms: _506  and  _509
REMARK  210  A    between atoms: _509  and  _510
REMARK  211  A    between atoms: _510  and  _511
REMARK  212  A    between atoms: _516  and  _518
REMARK  213  A    between atoms: _518  and  _519
REMARK  214  A    between atoms: _518  and  _521
REMARK  215  A    between atoms: _521  and  _522
REMARK  216  A    between atoms: _527  and  _528
REMARK  217  A    between atoms: _530  and  _532
REMARK  218  A    between atoms: _532  and  _533
REMARK  219  A    between atoms: _536  and  _538
REMARK  220  A    between atoms: _538  and  _539
REMARK  221  A    between atoms: _538  and  _541
REMARK  222  A    between atoms: _541  and  _542
REMARK  223  A    between atoms: _547  and  _548
REMARK  224  A    between atoms: _550  and  _552
REMARK  225  A    between atoms: _552  and  _553
REMARK  226  A    between atoms: _552  and  _555
REMARK  227  A    between atoms: _555  and  _556
REMARK  228  A    between atoms: _561  and  _562
REMARK  229  A    between atoms: _564  and  _566
REMARK  230  A    between atoms: _566  and  _567
REMARK  231  A    between atoms: _566  and  _569
REMARK  232  A    between atoms: _569  and  _570
REMARK  233  A    between atoms: _573  and  _575
REMARK  234  A    between atoms: _575  and  _576
REMARK  235  A    between atoms: _575  and  _578
REMARK  236  A    between atoms: _578  and  _579
REMARK  237  A    between atoms: _589  and  _591
REMARK  238  A    between atoms: _591  and  _592
REMARK  239  A    between atoms: _595  and  _597
REMARK  240  A    between atoms: _597  and  _598
REMARK  241  A    between atoms: _601  and  _603
REMARK  242  A    between atoms: _603  and  _604
REMARK  243  A    between atoms: _603  and  _606
REMARK  244  A    between atoms: _606  and  _607
REMARK  245  A    between atoms: _610  and  _612
REMARK  246  A    between atoms: _612  and  _613
REMARK  247  A    between atoms: _612  and  _615
REMARK  248  A    between atoms: _615  and  _616
REMARK  249  A    between atoms: _619  and  _621
REMARK  250  A    between atoms: _621  and  _622
REMARK  251  A    between atoms: _621  and  _624
REMARK  252  A    between atoms: _624  and  _625
REMARK  253  A    between atoms: _628  and  _630
REMARK  254  A    between atoms: _630  and  _631
REMARK  255  A    between atoms: _630  and  _633
REMARK  256  A    between atoms: _633  and  _634
REMARK  257  A    between atoms: _634  and  _635
REMARK  258  A    between atoms: _635  and  _636
REMARK  259  A    between atoms: _636  and  _637
REMARK  260  A    between atoms: _641  and  _643
REMARK  261  A    between atoms: _643  and  _644
REMARK  262  A    between atoms: _643  and  _646
REMARK  263  A    between atoms: _646  and  _647
REMARK  264  A    between atoms: _652  and  _654
REMARK  265  A    between atoms: _654  and  _655
REMARK  266  A    between atoms: _654  and  _657
REMARK  267  A    between atoms: _657  and  _658
REMARK  268  A    between atoms: _658  and  _659
REMARK  269  A    between atoms: _659  and  _660
REMARK  270  A    between atoms: _660  and  _661
REMARK  271  A    between atoms: _665  and  _667
REMARK  272  A    between atoms: _667  and  _668
REMARK  273  A    between atoms: _667  and  _670
REMARK  274  A    between atoms: _670  and  _671
REMARK  275  A    between atoms: _681  and  _683
REMARK  276  A    between atoms: _683  and  _684
REMARK  277  A    between atoms: _687  and  _689
REMARK  278  A    between atoms: _689  and  _690
REMARK  279  A    between atoms: _692  and  _694
REMARK  280  A    between atoms: _694  and  _695
REMARK  281  A    between atoms: _694  and  _697
REMARK  282  A    between atoms: _697  and  _698
REMARK  283  A    between atoms: _698  and  _699
REMARK  284  A    between atoms: _702  and  _704
REMARK  285  A    between atoms: _704  and  _705
REMARK  286  A    between atoms: _708  and  _710
REMARK  287  A    between atoms: _710  and  _711
REMARK  288  A    between atoms: _710  and  _713
REMARK  289  A    between atoms: _713  and  _714
REMARK  290  A    between atoms: _714  and  _715
REMARK  291  A    between atoms: _715  and  _716
REMARK  292  A    between atoms: _725  and  _727
REMARK  293  A    between atoms: _727  and  _728
REMARK  294  A    between atoms: _727  and  _730
REMARK  295  A    between atoms: _730  and  _731
REMARK  296  A    between atoms: _734  and  _736
REMARK  297  A    between atoms: _736  and  _737
REMARK  298  A    between atoms: _736  and  _739
REMARK  299  A    between atoms: _739  and  _740
REMARK  300  A    between atoms: _745  and  _746
REMARK  301  A    between atoms: _748  and  _750
REMARK  302  A    between atoms: _750  and  _751
REMARK  303  A    between atoms: _750  and  _753
REMARK  304  A    between atoms: _753  and  _754
REMARK  305  A    between atoms: _757  and  _759
REMARK  306  A    between atoms: _759  and  _760
REMARK  307  A    between atoms: _759  and  _762
REMARK  308  A    between atoms: _762  and  _763
REMARK  309  A    between atoms: _766  and  _768
REMARK  310  A    between atoms: _768  and  _769
REMARK  311  A    between atoms: _768  and  _771
REMARK  312  A    between atoms: _771  and  _772
REMARK  313  A    between atoms: _773  and  _775
REMARK  314  A    between atoms: _775  and  _776
REMARK  315  A    between atoms: _775  and  _778
REMARK  316  A    between atoms: _781  and  _783
REMARK  317  A    between atoms: _783  and  _784
REMARK  318  A    between atoms: _783  and  _786
REMARK  319  A    between atoms: _786  and  _787
REMARK  320  A    between atoms: _787  and  _788
REMARK  321  A    between atoms: _791  and  _793
REMARK  322  A    between atoms: _793  and  _794
REMARK  323  A    between atoms: _793  and  _796
REMARK  324  A    between atoms: _796  and  _797
REMARK  325  A    between atoms: _807  and  _809
REMARK  326  A    between atoms: _809  and  _810
REMARK  327  A    between atoms: _809  and  _812
REMARK  328  A    between atoms: _812  and  _813
REMARK  329  A    between atoms: _816  and  _818
REMARK  330  A    between atoms: _818  and  _819
REMARK  331  A    between atoms: _818  and  _821
REMARK  332  A    between atoms: _821  and  _822
REMARK  333  A    between atoms: _822  and  _823
REMARK  334  A    between atoms: _823  and  _824
REMARK  335  A    between atoms: _833  and  _835
REMARK  336  A    between atoms: _835  and  _836
REMARK  337  A    between atoms: _835  and  _838
REMARK  338  A    between atoms: _838  and  _839
REMARK  339  A    between atoms: _844  and  _845
REMARK                            x       y       z     vdW  Elec       q    Type
REMARK                         _______ _______ _______ _____ _____    ______ ____
ROOT
ATOM      1  CA  LYS A   6      44.222  57.620 -20.206  0.00  0.00    +0.149 C 
ENDROOT
BRANCH   1   2
ATOM      2  C   LYS A   6      44.192  59.066 -20.721  0.00  0.00    +0.241 C 
ATOM      3  O   LYS A   6      44.915  59.940 -20.227  0.00  0.00    -0.273 OA
ATOM      4  N   HIS A   7      43.359  59.319 -21.718  0.00  0.00    -0.297 N 
ATOM      5  H   HIS A   7      42.759  58.562 -22.104  0.00  0.00    +0.150 HD
BRANCH   4   6
ATOM      6  CA  HIS A   7      43.288  60.663 -22.270  0.00  0.00    +0.155 C 
BRANCH   6   7
ATOM      7  C   HIS A   7      42.765  61.678 -21.257  0.00  0.00    +0.241 C 
ATOM      8  N   LYS A   8      41.771  61.298 -20.453  0.00  0.00    -0.297 N 
ATOM      9  H   LYS A   8      41.362  60.348 -20.561  0.00  0.00    +0.150 HD
ATOM     10  O   HIS A   7      43.293  62.785 -21.179  0.00  0.00    -0.273 OA
BRANCH   8  11
ATOM     11  CA  LYS A   8      41.245  62.195 -19.421  0.00  0.00    +0.149 C 
BRANCH  11  12
ATOM     12  C   LYS A   8      42.344  62.560 -18.421  0.00  0.00    +0.241 C 
ATOM     13  N   TRP A   9      43.049  61.540 -17.937  0.00  0.00    -0.298 N 
ATOM     14  H   TRP A   9      42.847  60.575 -18.268  0.00  0.00    +0.150 HD
ATOM     15  O   LYS A   8      42.537  63.731 -18.071  0.00  0.00    -0.273 OA
BRANCH  13  16
ATOM     16  CA  TRP A   9      44.098  61.756 -16.952  0.00  0.00    +0.141 C 
BRANCH  16  17
ATOM     17  C   TRP A   9      45.280  62.535 -17.509  0.00  0.00    +0.227 C 
ATOM     18  O   TRP A   9      45.934  63.273 -16.776  0.00  0.00    -0.286 OA
ENDBRANCH  16  17
BRANCH  16  19
ATOM     19  CB  TRP A   9      44.543  60.415 -16.356  0.00  0.00    +0.056 C 
BRANCH  19  20
ATOM     20  CG  TRP A   9      43.485  59.757 -15.518  0.00  0.00    -0.002 A 
ATOM     21  CD2 TRP A   9      43.576  58.478 -14.882  0.00  0.00    +0.013 A 
ATOM     22  CE2 TRP A   9      42.361  58.265 -14.193  0.00  0.00    +0.056 A 
ATOM     23  CZ2 TRP A   9      42.112  57.100 -13.454  0.00  0.00    +0.017 A 
ATOM     24  CH2 TRP A   9      43.101  56.144 -13.418  0.00  0.00    +0.001 A 
ATOM     25  CZ3 TRP A   9      44.319  56.324 -14.090  0.00  0.00    +0.000 A 
ATOM     26  NE1 TRP A   9      41.567  59.366 -14.402  0.00  0.00    -0.352 N 
ATOM     27  HE1 TRP A   9      40.609  59.503 -14.021  0.00  0.00    +0.166 HD
ATOM     28  CE3 TRP A   9      44.570  57.491 -14.828  0.00  0.00    +0.001 A 
ATOM     29  CD1 TRP A   9      42.245  60.256 -15.196  0.00  0.00    +0.068 A 
ENDBRANCH  19  20
ENDBRANCH  16  19
ENDBRANCH  13  16
ENDBRANCH  11  12
BRANCH  11  30
ATOM     30  CB  LYS A   8      40.097  61.540 -18.622  0.00  0.00    +0.029 C 
BRANCH  30  31
ATOM     31  CG  LYS A   8      38.784  61.296 -19.364  0.00  0.00    +0.000 C 
BRANCH  31  32
ATOM     32  CD  LYS A   8      37.734  60.808 -18.370  0.00  0.00    -0.024 C 
BRANCH  32  33
ATOM     33  CE  LYS A   8      36.374  60.543 -19.021  0.00  0.00    -0.086 C 
BRANCH  33  34
ATOM     34  NZ  LYS A   8      35.367  60.190 -17.969  0.00  0.00    +0.380 N 
ATOM     35  HZ1 LYS A   8      35.279  60.979 -17.297  0.00  0.00    -0.089 HD
ATOM     36  HZ2 LYS A   8      35.679  59.336 -17.465  0.00  0.00    -0.089 HD
ATOM     37  HZ3 LYS A   8      34.446  60.011 -18.418  0.00  0.00    -0.089 HD
ENDBRANCH  33  34
ENDBRANCH  32  33
ENDBRANCH  31  32
ENDBRANCH  30  31
ENDBRANCH  11  30
ENDBRANCH   8  11
ENDBRANCH   6   7
BRANCH   6  38
ATOM     38  CB  HIS A   7      42.482  60.621 -23.569  0.00  0.00    +0.076 C 
BRANCH  38  39
ATOM     39  CG  HIS A   7      43.205  59.909 -24.675  0.00  0.00    +0.082 A 
ATOM     40  CD2 HIS A   7      44.530  59.754 -24.913  0.00  0.00    +0.115 A 
ATOM     41  NE2 HIS A   7      44.653  59.013 -26.064  0.00  0.00    -0.221 NA
ATOM     42  CE1 HIS A   7      43.447  58.721 -26.516  0.00  0.00    +0.199 A 
ATOM     43  ND1 HIS A   7      42.555  59.250 -25.697  0.00  0.00    -0.227 NA
ENDBRANCH  38  39
ENDBRANCH   6  38
ENDBRANCH   4   6
ENDBRANCH   1   2
BRANCH   1  46
ATOM     44  C   THR A   5      41.990  57.794 -19.249  0.00  0.00    +0.243 C 
ATOM     45  O   THR A   5      42.260  58.866 -18.709  0.00  0.00    -0.273 OA
ATOM     46  N   LYS A   6      42.866  57.122 -19.997  0.00  0.00    -0.297 N 
ATOM     47  H   LYS A   6      42.578  56.226 -20.440  0.00  0.00    +0.150 HD
BRANCH  44  48
ATOM     48  CA  THR A   5      40.601  57.184 -19.097  0.00  0.00    +0.176 C 
BRANCH  48  50
ATOM     49  C   ILE A   4      39.969  57.608 -21.395  0.00  0.00    +0.241 C 
ATOM     50  N   THR A   5      40.142  56.740 -20.406  0.00  0.00    -0.295 N 
ATOM     51  H   THR A   5      39.948  55.731 -20.568  0.00  0.00    +0.150 HD
ATOM     52  O   ILE A   4      40.187  58.819 -21.274  0.00  0.00    -0.273 OA
BRANCH  49  53
ATOM     53  CA  ILE A   4      39.482  57.027 -22.718  0.00  0.00    +0.149 C 
BRANCH  53  55
ATOM     54  C   LEU A   3      41.576  55.922 -23.265  0.00  0.00    +0.241 C 
ATOM     55  N   ILE A   4      40.277  55.835 -22.994  0.00  0.00    -0.297 N 
ATOM     56  H   ILE A   4      39.820  54.901 -22.979  0.00  0.00    +0.150 HD
ATOM     57  O   LEU A   3      42.161  56.997 -23.318  0.00  0.00    -0.273 OA
BRANCH  54  58
ATOM     58  CA  LEU A   3      42.340  54.602 -23.487  0.00  0.00    +0.149 C 
BRANCH  58  61
ATOM     59  C   ALA A   2      41.758  53.584 -21.377  0.00  0.00    +0.241 C 
ATOM     60  O   ALA A   2      42.405  54.440 -20.780  0.00  0.00    -0.273 OA
ATOM     61  N   LEU A   3      41.680  53.559 -22.707  0.00  0.00    -0.297 N 
ATOM     62  H   LEU A   3      41.153  52.802 -23.186  0.00  0.00    +0.150 HD
BRANCH  59  63
ATOM     63  CA  ALA A   2      41.021  52.487 -20.613  0.00  0.00    +0.149 C 
ATOM     64  CB  ALA A   2      41.995  51.382 -20.209  0.00  0.00    +0.031 C 
BRANCH  63  66
ATOM     65  C   ALA A   1      38.877  52.665 -21.754  0.00  0.00    +0.238 C 
ATOM     66  N   ALA A   2      39.919  51.921 -21.388  0.00  0.00    -0.297 N 
ATOM     67  H   ALA A   2      39.949  50.917 -21.659  0.00  0.00    +0.150 HD
ATOM     68  O   ALA A   1      38.779  53.873 -21.484  0.00  0.00    -0.274 OA
BRANCH  65  69
ATOM     69  CA  ALA A   1      37.800  51.948 -22.561  0.00  0.00    +0.145 C 
ATOM     70  CB  ALA A   1      37.023  50.983 -21.669  0.00  0.00    +0.028 C 
BRANCH  69  71
ATOM     71  N   ALA A   1      38.503  51.221 -23.613  0.00  0.00    -0.238 NA
ATOM     72  H   ALA A   1      38.531  50.181 -23.600  0.00  0.00    +0.142 HD
ENDBRANCH  69  71
ENDBRANCH  65  69
ENDBRANCH  63  66
ENDBRANCH  59  63
ENDBRANCH  58  61
BRANCH  58  73
ATOM     73  CB  LEU A   3      42.409  54.205 -24.984  0.00  0.00    +0.029 C 
BRANCH  73  74
ATOM     74  CG  LEU A   3      43.232  55.131 -25.897  0.00  0.00    +0.002 C 
ATOM     75  CD2 LEU A   3      44.666  55.248 -25.407  0.00  0.00    +0.000 C 
ATOM     76  CD1 LEU A   3      43.209  54.598 -27.335  0.00  0.00    +0.000 C 
ENDBRANCH  73  74
ENDBRANCH  58  73
ENDBRANCH  54  58
ENDBRANCH  53  55
BRANCH  53  77
ATOM     77  CB  ILE A   4      37.979  56.704 -22.576  0.00  0.00    +0.027 C 
ATOM     78  CG2 ILE A   4      37.210  57.943 -22.119  0.00  0.00    +0.002 C 
BRANCH  77  79
ATOM     79  CG1 ILE A   4      37.422  56.174 -23.906  0.00  0.00    +0.002 C 
ATOM     80  CD1 ILE A   4      35.967  55.758 -23.813  0.00  0.00    +0.000 C 
ENDBRANCH  77  79
ENDBRANCH  53  77
ENDBRANCH  49  53
ENDBRANCH  48  50
BRANCH  48  81
ATOM     81  CB  THR A   5      40.640  56.007 -18.099  0.00  0.00    +0.137 C 
ATOM     82  CG2 THR A   5      41.163  56.470 -16.740  0.00  0.00    +0.034 C 
BRANCH  81  83
ATOM     83  OG1 THR A   5      39.313  55.493 -17.918  0.00  0.00    -0.382 OA
ATOM     84  HG1 THR A   5      38.729  56.209 -17.563  0.00  0.00    +0.210 HD
ENDBRANCH  81  83
ENDBRANCH  48  81
ENDBRANCH  44  48
ENDBRANCH   1  46
BRANCH   1  85
ATOM     85  CB  LYS A   6      44.973  56.731 -21.214  0.00  0.00    +0.029 C 
BRANCH  85  86
ATOM     86  CG  LYS A   6      46.391  57.207 -21.601  0.00  0.00    +0.000 C 
BRANCH  86  87
ATOM     87  CD  LYS A   6      47.112  56.120 -22.436  0.00  0.00    -0.024 C 
BRANCH  87  88
ATOM     88  CE  LYS A   6      48.603  56.444 -22.715  0.00  0.00    -0.086 C 
BRANCH  88  89
ATOM     89  NZ  LYS A   6      48.779  57.586 -23.667  0.00  0.00    +0.380 N 
ATOM     90  HZ1 LYS A   6      48.337  58.439 -23.269  0.00  0.00    -0.089 HD
ATOM     91  HZ2 LYS A   6      49.794  57.758 -23.816  0.00  0.00    -0.089 HD
ATOM     92  HZ3 LYS A   6      48.329  57.352 -24.575  0.00  0.00    -0.089 HD
ENDBRANCH  88  89
ENDBRANCH  87  88
ENDBRANCH  86  87
ENDBRANCH  85  86
ENDBRANCH   1  85
TORSDOF 38
REMARK  Name = ../refined-set-2016/1fzo/1fzo_pocket.pdb
REMARK  339 active torsions:
REMARK  status: ('A' for Active; 'I' for Inactive)
REMARK    1  A    between atoms: _1  and  _3
REMARK    2  A    between atoms: _3  and  _4
REMARK    3  A    between atoms: _3  and  _6
REMARK    4  A    between atoms: _6  and  _7
REMARK    5  A    between atoms: _10  and  _12
REMARK    6  A    between atoms: _12  and  _13
REMARK    7  A    between atoms: _12  and  _15
REMARK    8  A    between atoms: _15  and  _16
REMARK    9  A    between atoms: _16  and  _17
REMARK   10  A    between atoms: _17  and  _18
REMARK   11  A    between atoms: _27  and  _29
REMARK   12  A    between atoms: _29  and  _30
REMARK   13  A    between atoms: _29  and  _32
REMARK   14  A    between atoms: _32  and  _33
REMARK   15  A    between atoms: _38  and  _39
REMARK   16  A    between atoms: _41  and  _43
REMARK   17  A    between atoms: _43  and  _44
REMARK   18  A    between atoms: _43  and  _46
REMARK   19  A    between atoms: _46  and  _47
REMARK   20  A    between atoms: _53  and  _55
REMARK   21  A    between atoms: _55  and  _56
REMARK   22  A    between atoms: _55  and  _58
REMARK   23  A    between atoms: _61  and  _63
REMARK   24  A    between atoms: _63  and  _64
REMARK   25  A    between atoms: _63  and  _66
REMARK   26  A    between atoms: _66  and  _67
REMARK   27  A    between atoms: _70  and  _72
REMARK   28  A    between atoms: _72  and  _73
REMARK   29  A    between atoms: _72  and  _75
REMARK   30  A    between atoms: _75  and  _76
REMARK   31  A    between atoms: _82  and  _84
REMARK   32  A    between atoms: _84  and  _85
REMARK   33  A    between atoms: _84  and  _87
REMARK   34  A    between atoms: _87  and  _88
REMARK   35  A    between atoms: _91  and  _93
REMARK   36  A    between atoms: _93  and  _94
REMARK   37  A    between atoms: _93  and  _96
REMARK   38  A    between atoms: _96  and  _97
REMARK   39  A    between atoms: _99  and  _101
REMARK   40  A    between atoms: _101  and  _102
REMARK   41  A    between atoms: _101  and  _104
REMARK   42  A    between atoms: _107  and  _109
REMARK   43  A    between atoms: _109  and  _110
REMARK   44  A    between atoms: _112  and  _114
REMARK   45  A    between atoms: _114  and  _115
REMARK   46  A    between atoms: _114  and  _117
REMARK   47  A    between atoms: _120  and  _122
REMARK   48  A    between atoms: _122  and  _123
REMARK   49  A    between atoms: _122  and  _125
REMARK   50  A    between atoms: _125  and  _126
REMARK   51  A    between atoms: _132  and  _134
REMARK   52  A    between atoms: _134  and  _135
REMARK   53  A    between atoms: _134  and  _137
REMARK   54  A    between atoms: _140  and  _142
REMARK   55  A    between atoms: _142  and  _143
REMARK   56  A    between atoms: _142  and  _145
REMARK   57  A    between atoms: _145  and  _146
REMARK   58  A    between atoms: _151  and  _152
REMARK   59  A    between atoms: _154  and  _156
REMARK   60  A    between atoms: _156  and  _157
REMARK   61  A    between atoms: _156  and  _159
REMARK   62  A    between atoms: _159  and  _160
REMARK   63  A    between atoms: _160  and  _161
REMARK   64  A    between atoms: _163  and  _165
REMARK   65  A    between atoms: _165  and  _166
REMARK   66  A    between atoms: _165  and  _168
REMARK   67  A    between atoms: _168  and  _169
REMARK   68  A    between atoms: _169  and  _170
REMARK   69  A    between atoms: _173  and  _175
REMARK   70  A    between atoms: _175  and  _176
REMARK   71  A    between atoms: _175  and  _178
REMARK   72  A    between atoms: _178  and  _179
REMARK   73  A    between atoms: _179  and  _180
REMARK   74  A    between atoms: _183  and  _185
REMARK   75  A    between atoms: _185  and  _186
REMARK   76  A    between atoms: _185  and  _188
REMARK   77  A    between atoms: _188  and  _189
REMARK   78  A    between atoms: _194  and  _195
REMARK   79  A    between atoms: _197  and  _199
REMARK   80  A    between atoms: _199  and  _200
REMARK   81  A    between atoms: _199  and  _202
REMARK   82  A    between atoms: _202  and  _203
REMARK   83  A    between atoms: _213  and  _215
REMARK   84  A    between atoms: _215  and  _216
REMARK   85  A    between atoms: _215  and  _218
REMARK   86  A    between atoms: _218  and  _219
REMARK   87  A    between atoms: _219  and  _220
REMARK   88  A    between atoms: _223  and  _225
REMARK   89  A    between atoms: _225  and  _226
REMARK   90  A    between atoms: _225  and  _228
REMARK   91  A    between atoms: _228  and  _229
REMARK   92  A    between atoms: _229  and  _230
REMARK   93  A    between atoms: _230  and  _231
REMARK   94  A    between atoms: _240  and  _242
REMARK   95  A    between atoms: _242  and  _243
REMARK   96  A    between atoms: _242  and  _245
REMARK   97  A    between atoms: _245  and  _246
REMARK   98  A    between atoms: _246  and  _247
REMARK   99  A    between atoms: _250  and  _252
REMARK  100  A    between atoms: _252  and  _253
REMARK  101  A    between atoms: _252  and  _255
REMARK  102  A    between atoms: _255  and  _256
REMARK  103  A    between atoms: _259  and  _261
REMARK  104  A    between atoms: _261  and  _262
REMARK  105  A    between atoms: _261  and  _264
REMARK  106  A    between atoms: _264  and  _265
REMARK  107  A    between atoms: _265  and  _266
REMARK  108  A    between atoms: _271  and  _273
REMARK  109  A    between atoms: _273  and  _274
REMARK  110  A    between atoms: _273  and  _276
REMARK  111  A    between atoms: _276  and  _277
REMARK  112  A    between atoms: _277  and  _278
REMARK  113  A    between atoms: _278  and  _279
REMARK  114  A    between atoms: _279  and  _280
REMARK  115  A    between atoms: _284  and  _286
REMARK  116  A    between atoms: _286  and  _287
REMARK  117  A    between atoms: _290  and  _292
REMARK  118  A    between atoms: _292  and  _293
REMARK  119  A    between atoms: _295  and  _297
REMARK  120  A    between atoms: _297  and  _298
REMARK  121  A    between atoms: _297  and  _300
REMARK  122  A    between atoms: _300  and  _301
REMARK  123  A    between atoms: _306  and  _308
REMARK  124  A    between atoms: _308  and  _309
REMARK  125  A    between atoms: _308  and  _311
REMARK  126  A    between atoms: _311  and  _312
REMARK  127  A    between atoms: _312  and  _313
REMARK  128  A    between atoms: _316  and  _318
REMARK  129  A    between atoms: _318  and  _319
REMARK  130  A    between atoms: _318  and  _321
REMARK  131  A    between atoms: _321  and  _322
REMARK  132  A    between atoms: _322  and  _323
REMARK  133  A    between atoms: _328  and  _330
REMARK  134  A    between atoms: _330  and  _331
REMARK  135  A    between atoms: _330  and  _333
REMARK  136  A    between atoms: _333  and  _334
REMARK  137  A    between atoms: _336  and  _338
REMARK  138  A    between atoms: _338  and  _339
REMARK  139  A    between atoms: _338  and  _341
REMARK  140  A    between atoms: _341  and  _342
REMARK  141  A    between atoms: _348  and  _350
REMARK  142  A    between atoms: _350  and  _351
REMARK  143  A    between atoms: _350  and  _353
REMARK  144  A    between atoms: _356  and  _358
REMARK  145  A    between atoms: _358  and  _359
REMARK  146  A    between atoms: _358  and  _361
REMARK  147  A    between atoms: _361  and  _362
REMARK  148  A    between atoms: _365  and  _367
REMARK  149  A    between atoms: _367  and  _368
REMARK  150  A    between atoms: _367  and  _370
REMARK  151  A    between atoms: _370  and  _371
REMARK  152  A    between atoms: _374  and  _376
REMARK  153  A    between atoms: _376  and  _377
REMARK  154  A    between atoms: _376  and  _379
REMARK  155  A    between atoms: _379  and  _380
REMARK  156  A    between atoms: _383  and  _385
REMARK  157  A    between atoms: _385  and  _386
REMARK  158  A    between atoms: _385  and  _388
REMARK  159  A    between atoms: _388  and  _389
REMARK  160  A    between atoms: _392  and  _394
REMARK  161  A    between atoms: _394  and  _395
REMARK  162  A    between atoms: _394  and  _397
REMARK  163  A    between atoms: _397  and  _398
REMARK  164  A    between atoms: _403  and  _404
REMARK  165  A    between atoms: _406  and  _408
REMARK  166  A    between atoms: _408  and  _409
REMARK  167  A    between atoms: _408  and  _411
REMARK  168  A    between atoms: _411  and  _412
REMARK  169  A    between atoms: _417  and  _418
REMARK  170  A    between atoms: _420  and  _422
REMARK  171  A    between atoms: _422  and  _423
REMARK  172  A    between atoms: _422  and  _425
REMARK  173  A    between atoms: _425  and  _426
REMARK  174  A    between atoms: _429  and  _431
REMARK  175  A    between atoms: _431  and  _432
REMARK  176  A    between atoms: _431  and  _434
REMARK  177  A    between atoms: _434  and  _435
REMARK  178  A    between atoms: _435  and  _436
REMARK  179  A    between atoms: _441  and  _443
REMARK  180  A    between atoms: _443  and  _444
REMARK  181  A    between atoms: _443  and  _446
REMARK  182  A    between atoms: _449  and  _451
REMARK  183  A    between atoms: _451  and  _452
REMARK  184  A    between atoms: _451  and  _454
REMARK  185  A    between atoms: _454  and  _455
REMARK  186  A    between atoms: _458  and  _460
REMARK  187  A    between atoms: _460  and  _461
REMARK  188  A    between atoms: _460  and  _463
REMARK  189  A    between atoms: _463  and  _464
REMARK  190  A    between atoms: _466  and  _468
REMARK  191  A    between atoms: _468  and  _469
REMARK  192  A    between atoms: _471  and  _473
REMARK  193  A    between atoms: _473  and  _474
REMARK  194  A    between atoms: _473  and  _476
REMARK  195  A    between atoms: _476  and  _477
REMARK  196  A    between atoms: _477  and  _772
REMARK  197  A    between atoms: _478  and  _480
REMARK  198  A    between atoms: _480  and  _481
REMARK  199  A    between atoms: _480  and  _483
REMARK  200  A    between atoms: _483  and  _484
REMARK  201  A    between atoms: _489  and  _490
REMARK  202  A    between atoms: _492  and  _494
REMARK  203  A    between atoms: _494  and  _495
REMARK  204  A    between atoms: _494  and  _497
REMARK  205  A    between atoms: _497  and  _498
REMARK  206  A    between atoms: _498  and  _499
REMARK  207  A    between atoms: _504  and  _506
REMARK  208  A    between atoms: _506  and  _507
REMARK  209  A    between atoms: _506  and  _509
REMARK  210  A    between atoms: _509  and  _510
REMARK  211  A    between atoms: _510  and  _511
REMARK  212  A    between atoms: _516  and  _518
REMARK  213  A    between atoms: _518  and  _519
REMARK  214  A    between atoms: _518  and  _521
REMARK  215  A    between atoms: _521  and  _522
REMARK  216  A    between atoms: _527  and  _528
REMARK  217  A    between atoms: _530  and  _532
REMARK  218  A    between atoms: _532  and  _533
REMARK  219  A    between atoms: _536  and  _538
REMARK  220  A    between atoms: _538  and  _539
REMARK  221  A    between atoms: _538  and  _541
REMARK  222  A    between atoms: _541  and  _542
REMARK  223  A    between atoms: _547  and  _548
REMARK  224  A    between atoms: _550  and  _552
REMARK  225  A    between atoms: _552  and  _553
REMARK  226  A    between atoms: _552  and  _555
REMARK  227  A    between atoms: _555  and  _556
REMARK  228  A    between atoms: _561  and  _562
REMARK  229  A    between atoms: _564  and  _566
REMARK  230  A    between atoms: _566  and  _567
REMARK  231  A    between atoms: _566  and  _569
REMARK  232  A    between atoms: _569  and  _570
REMARK  233  A    between atoms: _573  and  _575
REMARK  234  A    between atoms: _575  and  _576
REMARK  235  A    between atoms: _575  and  _578
REMARK  236  A    between atoms: _578  and  _579
REMARK  237  A    between atoms: _589  and  _591
REMARK  238  A    between atoms: _591  and  _592
REMARK  239  A    between atoms: _595  and  _597
REMARK  240  A    between atoms: _597  and  _598
REMARK  241  A    between atoms: _601  and  _603
REMARK  242  A    between atoms: _603  and  _604
REMARK  243  A    between atoms: _603  and  _606
REMARK  244  A    between atoms: _606  and  _607
REMARK  245  A    between atoms: _610  and  _612
REMARK  246  A    between atoms: _612  and  _613
REMARK  247  A    between atoms: _612  and  _615
REMARK  248  A    between atoms: _615  and  _616
REMARK  249  A    between atoms: _619  and  _621
REMARK  250  A    between atoms: _621  and  _622
REMARK  251  A    between atoms: _621  and  _624
REMARK  252  A    between atoms: _624  and  _625
REMARK  253  A    between atoms: _628  and  _630
REMARK  254  A    between atoms: _630  and  _631
REMARK  255  A    between atoms: _630  and  _633
REMARK  256  A    between atoms: _633  and  _634
REMARK  257  A    between atoms: _634  and  _635
REMARK  258  A    between atoms: _635  and  _636
REMARK  259  A    between atoms: _636  and  _637
REMARK  260  A    between atoms: _641  and  _643
REMARK  261  A    between atoms: _643  and  _644
REMARK  262  A    between atoms: _643  and  _646
REMARK  263  A    between atoms: _646  and  _647
REMARK  264  A    between atoms: _652  and  _654
REMARK  265  A    between atoms: _654  and  _655
REMARK  266  A    between atoms: _654  and  _657
REMARK  267  A    between atoms: _657  and  _658
REMARK  268  A    between atoms: _658  and  _659
REMARK  269  A    between atoms: _659  and  _660
REMARK  270  A    between atoms: _660  and  _661
REMARK  271  A    between atoms: _665  and  _667
REMARK  272  A    between atoms: _667  and  _668
REMARK  273  A    between atoms: _667  and  _670
REMARK  274  A    between atoms: _670  and  _671
REMARK  275  A    between atoms: _681  and  _683
REMARK  276  A    between atoms: _683  and  _684
REMARK  277  A    between atoms: _687  and  _689
REMARK  278  A    between atoms: _689  and  _690
REMARK  279  A    between atoms: _692  and  _694
REMARK  280  A    between atoms: _694  and  _695
REMARK  281  A    between atoms: _694  and  _697
REMARK  282  A    between atoms: _697  and  _698
REMARK  283  A    between atoms: _698  and  _699
REMARK  284  A    between atoms: _702  and  _704
REMARK  285  A    between atoms: _704  and  _705
REMARK  286  A    between atoms: _708  and  _710
REMARK  287  A    between atoms: _710  and  _711
REMARK  288  A    between atoms: _710  and  _713
REMARK  289  A    between atoms: _713  and  _714
REMARK  290  A    between atoms: _714  and  _715
REMARK  291  A    between atoms: _715  and  _716
REMARK  292  A    between atoms: _725  and  _727
REMARK  293  A    between atoms: _727  and  _728
REMARK  294  A    between atoms: _727  and  _730
REMARK  295  A    between atoms: _730  and  _731
REMARK  296  A    between atoms: _734  and  _736
REMARK  297  A    between atoms: _736  and  _737
REMARK  298  A    between atoms: _736  and  _739
REMARK  299  A    between atoms: _739  and  _740
REMARK  300  A    between atoms: _745  and  _746
REMARK  301  A    between atoms: _748  and  _750
REMARK  302  A    between atoms: _750  and  _751
REMARK  303  A    between atoms: _750  and  _753
REMARK  304  A    between atoms: _753  and  _754
REMARK  305  A    between atoms: _757  and  _759
REMARK  306  A    between atoms: _759  and  _760
REMARK  307  A    between atoms: _759  and  _762
REMARK  308  A    between atoms: _762  and  _763
REMARK  309  A    between atoms: _766  and  _768
REMARK  310  A    between atoms: _768  and  _769
REMARK  311  A    between atoms: _768  and  _771
REMARK  312  A    between atoms: _771  and  _772
REMARK  313  A    between atoms: _773  and  _775
REMARK  314  A    between atoms: _775  and  _776
REMARK  315  A    between atoms: _775  and  _778
REMARK  316  A    between atoms: _781  and  _783
REMARK  317  A    between atoms: _783  and  _784
REMARK  318  A    between atoms: _783  and  _786
REMARK  319  A    between atoms: _786  and  _787
REMARK  320  A    between atoms: _787  and  _788
REMARK  321  A    between atoms: _791  and  _793
REMARK  322  A    between atoms: _793  and  _794
REMARK  323  A    between atoms: _793  and  _796
REMARK  324  A    between atoms: _796  and  _797
REMARK  325  A    between atoms: _807  and  _809
REMARK  326  A    between atoms: _809  and  _810
REMARK  327  A    between atoms: _809  and  _812
REMARK  328  A    between atoms: _812  and  _813
REMARK  329  A    between atoms: _816  and  _818
REMARK  330  A    between atoms: _818  and  _819
REMARK  331  A    between atoms: _818  and  _821
REMARK  332  A    between atoms: _821  and  _822
REMARK  333  A    between atoms: _822  and  _823
REMARK  334  A    between atoms: _823  and  _824
REMARK  335  A    between atoms: _833  and  _835
REMARK  336  A    between atoms: _835  and  _836
REMARK  337  A    between atoms: _835  and  _838
REMARK  338  A    between atoms: _838  and  _839
REMARK  339  A    between atoms: _844  and  _845
REMARK                            x       y       z     vdW  Elec       q    Type
REMARK                         _______ _______ _______ _____ _____    ______ ____
ROOT
ATOM      1  CA  GLU A   3      47.016  63.276 -13.017  0.00  0.00    +0.149 C 
ENDROOT
BRANCH   1   4
ATOM      2  C   GLY A   2      47.812  65.254 -14.177  0.00  0.00    +0.243 C 
ATOM      3  O   GLY A   2      48.497  65.574 -13.202  0.00  0.00    -0.273 OA
ATOM      4  N   GLU A   3      47.085  64.143 -14.192  0.00  0.00    -0.297 N 
ATOM      5  H   GLU A   3      46.558  63.886 -15.051  0.00  0.00    +0.150 HD
BRANCH   2   6
ATOM      6  CA  GLY A   2      47.791  66.110 -15.436  0.00  0.00    +0.176 C 
BRANCH   6   9
ATOM      7  C   ALA A   1      45.450  66.714 -15.487  0.00  0.00    +0.238 C 
ATOM      8  O   ALA A   1      45.520  67.185 -14.351  0.00  0.00    -0.274 OA
ATOM      9  N   GLY A   2      46.493  66.170 -16.096  0.00  0.00    -0.296 N 
ATOM     10  H   GLY A   2      46.385  65.782 -17.055  0.00  0.00    +0.150 HD
BRANCH   7  11
ATOM     11  CA  ALA A   1      44.126  66.724 -16.248  0.00  0.00    +0.145 C 
ATOM     12  CB  ALA A   1      43.053  65.981 -15.448  0.00  0.00    +0.028 C 
BRANCH  11  13
ATOM     13  N   ALA A   1      44.215  66.174 -17.593  0.00  0.00    -0.238 NA
ATOM     14  H   ALA A   1      44.058  65.158 -17.749  0.00  0.00    +0.142 HD
ENDBRANCH  11  13
ENDBRANCH   7  11
ENDBRANCH   6   9
ENDBRANCH   2   6
ENDBRANCH   1   4
BRANCH   1  15
ATOM     15  C   GLU A   3      48.321  62.563 -12.696  0.00  0.00    +0.241 C 
ATOM     16  O   GLU A   3      48.622  62.328 -11.540  0.00  0.00    -0.273 OA
ATOM     17  N   ALA A   4      49.088  62.202 -13.714  0.00  0.00    -0.298 N 
ATOM     18  H   ALA A   4      48.792  62.417 -14.688  0.00  0.00    +0.150 HD
BRANCH  17  19
ATOM     19  CA  ALA A   4      50.347  61.503 -13.474  0.00  0.00    +0.137 C 
ATOM     20  CB  ALA A   4      51.002  61.132 -14.805  0.00  0.00    +0.030 C 
BRANCH  19  21
ATOM     21  C   ALA A   4      51.320  62.308 -12.623  0.00  0.00    +0.227 C 
ATOM     22  O   ALA A   4      51.990  61.765 -11.745  0.00  0.00    -0.286 OA
ENDBRANCH  19  21
ENDBRANCH  17  19
ENDBRANCH   1  15
BRANCH   1  23
ATOM     23  CB  GLU A   3      45.914  62.227 -13.189  0.00  0.00    +0.041 C 
BRANCH  23  24
ATOM     24  CG  GLU A   3      44.537  62.803 -13.484  0.00  0.00    +0.116 C 
BRANCH  24  25
ATOM     25  CD  GLU A   3      43.939  63.573 -12.321  0.00  0.00    +0.365 C 
ATOM     26  OE2 GLU A   3      44.614  63.715 -11.274  0.00  0.00    -0.246 OA
ATOM     27  OE1 GLU A   3      42.782  64.028 -12.462  0.00  0.00    -0.246 OA
ENDBRANCH  24  25
ENDBRANCH  23  24
ENDBRANCH   1  23
TORSDOF 11
REMARK  Name = ../refined-set-2016/1fzo/1fzo_pocket.pdb
REMARK  339 active torsions:
REMARK  status: ('A' for Active; 'I' for Inactive)
REMARK    1  A    between atoms: _1  and  _3
REMARK    2  A    between atoms: _3  and  _4
REMARK    3  A    between atoms: _3  and  _6
REMARK    4  A    between atoms: _6  and  _7
REMARK    5  A    between atoms: _10  and  _12
REMARK    6  A    between atoms: _12  and  _13
REMARK    7  A    between atoms: _12  and  _15
REMARK    8  A    between atoms: _15  and  _16
REMARK    9  A    between atoms: _16  and  _17
REMARK   10  A    between atoms: _17  and  _18
REMARK   11  A    between atoms: _27  and  _29
REMARK   12  A    between atoms: _29  and  _30
REMARK   13  A    between atoms: _29  and  _32
REMARK   14  A    between atoms: _32  and  _33
REMARK   15  A    between atoms: _38  and  _39
REMARK   16  A    between atoms: _41  and  _43
REMARK   17  A    between atoms: _43  and  _44
REMARK   18  A    between atoms: _43  and  _46
REMARK   19  A    between atoms: _46  and  _47
REMARK   20  A    between atoms: _53  and  _55
REMARK   21  A    between atoms: _55  and  _56
REMARK   22  A    between atoms: _55  and  _58
REMARK   23  A    between atoms: _61  and  _63
REMARK   24  A    between atoms: _63  and  _64
REMARK   25  A    between atoms: _63  and  _66
REMARK   26  A    between atoms: _66  and  _67
REMARK   27  A    between atoms: _70  and  _72
REMARK   28  A    between atoms: _72  and  _73
REMARK   29  A    between atoms: _72  and  _75
REMARK   30  A    between atoms: _75  and  _76
REMARK   31  A    between atoms: _82  and  _84
REMARK   32  A    between atoms: _84  and  _85
REMARK   33  A    between atoms: _84  and  _87
REMARK   34  A    between atoms: _87  and  _88
REMARK   35  A    between atoms: _91  and  _93
REMARK   36  A    between atoms: _93  and  _94
REMARK   37  A    between atoms: _93  and  _96
REMARK   38  A    between atoms: _96  and  _97
REMARK   39  A    between atoms: _99  and  _101
REMARK   40  A    between atoms: _101  and  _102
REMARK   41  A    between atoms: _101  and  _104
REMARK   42  A    between atoms: _107  and  _109
REMARK   43  A    between atoms: _109  and  _110
REMARK   44  A    between atoms: _112  and  _114
REMARK   45  A    between atoms: _114  and  _115
REMARK   46  A    between atoms: _114  and  _117
REMARK   47  A    between atoms: _120  and  _122
REMARK   48  A    between atoms: _122  and  _123
REMARK   49  A    between atoms: _122  and  _125
REMARK   50  A    between atoms: _125  and  _126
REMARK   51  A    between atoms: _132  and  _134
REMARK   52  A    between atoms: _134  and  _135
REMARK   53  A    between atoms: _134  and  _137
REMARK   54  A    between atoms: _140  and  _142
REMARK   55  A    between atoms: _142  and  _143
REMARK   56  A    between atoms: _142  and  _145
REMARK   57  A    between atoms: _145  and  _146
REMARK   58  A    between atoms: _151  and  _152
REMARK   59  A    between atoms: _154  and  _156
REMARK   60  A    between atoms: _156  and  _157
REMARK   61  A    between atoms: _156  and  _159
REMARK   62  A    between atoms: _159  and  _160
REMARK   63  A    between atoms: _160  and  _161
REMARK   64  A    between atoms: _163  and  _165
REMARK   65  A    between atoms: _165  and  _166
REMARK   66  A    between atoms: _165  and  _168
REMARK   67  A    between atoms: _168  and  _169
REMARK   68  A    between atoms: _169  and  _170
REMARK   69  A    between atoms: _173  and  _175
REMARK   70  A    between atoms: _175  and  _176
REMARK   71  A    between atoms: _175  and  _178
REMARK   72  A    between atoms: _178  and  _179
REMARK   73  A    between atoms: _179  and  _180
REMARK   74  A    between atoms: _183  and  _185
REMARK   75  A    between atoms: _185  and  _186
REMARK   76  A    between atoms: _185  and  _188
REMARK   77  A    between atoms: _188  and  _189
REMARK   78  A    between atoms: _194  and  _195
REMARK   79  A    between atoms: _197  and  _199
REMARK   80  A    between atoms: _199  and  _200
REMARK   81  A    between atoms: _199  and  _202
REMARK   82  A    between atoms: _202  and  _203
REMARK   83  A    between atoms: _213  and  _215
REMARK   84  A    between atoms: _215  and  _216
REMARK   85  A    between atoms: _215  and  _218
REMARK   86  A    between atoms: _218  and  _219
REMARK   87  A    between atoms: _219  and  _220
REMARK   88  A    between atoms: _223  and  _225
REMARK   89  A    between atoms: _225  and  _226
REMARK   90  A    between atoms: _225  and  _228
REMARK   91  A    between atoms: _228  and  _229
REMARK   92  A    between atoms: _229  and  _230
REMARK   93  A    between atoms: _230  and  _231
REMARK   94  A    between atoms: _240  and  _242
REMARK   95  A    between atoms: _242  and  _243
REMARK   96  A    between atoms: _242  and  _245
REMARK   97  A    between atoms: _245  and  _246
REMARK   98  A    between atoms: _246  and  _247
REMARK   99  A    between atoms: _250  and  _252
REMARK  100  A    between atoms: _252  and  _253
REMARK  101  A    between atoms: _252  and  _255
REMARK  102  A    between atoms: _255  and  _256
REMARK  103  A    between atoms: _259  and  _261
REMARK  104  A    between atoms: _261  and  _262
REMARK  105  A    between atoms: _261  and  _264
REMARK  106  A    between atoms: _264  and  _265
REMARK  107  A    between atoms: _265  and  _266
REMARK  108  A    between atoms: _271  and  _273
REMARK  109  A    between atoms: _273  and  _274
REMARK  110  A    between atoms: _273  and  _276
REMARK  111  A    between atoms: _276  and  _277
REMARK  112  A    between atoms: _277  and  _278
REMARK  113  A    between atoms: _278  and  _279
REMARK  114  A    between atoms: _279  and  _280
REMARK  115  A    between atoms: _284  and  _286
REMARK  116  A    between atoms: _286  and  _287
REMARK  117  A    between atoms: _290  and  _292
REMARK  118  A    between atoms: _292  and  _293
REMARK  119  A    between atoms: _295  and  _297
REMARK  120  A    between atoms: _297  and  _298
REMARK  121  A    between atoms: _297  and  _300
REMARK  122  A    between atoms: _300  and  _301
REMARK  123  A    between atoms: _306  and  _308
REMARK  124  A    between atoms: _308  and  _309
REMARK  125  A    between atoms: _308  and  _311
REMARK  126  A    between atoms: _311  and  _312
REMARK  127  A    between atoms: _312  and  _313
REMARK  128  A    between atoms: _316  and  _318
REMARK  129  A    between atoms: _318  and  _319
REMARK  130  A    between atoms: _318  and  _321
REMARK  131  A    between atoms: _321  and  _322
REMARK  132  A    between atoms: _322  and  _323
REMARK  133  A    between atoms: _328  and  _330
REMARK  134  A    between atoms: _330  and  _331
REMARK  135  A    between atoms: _330  and  _333
REMARK  136  A    between atoms: _333  and  _334
REMARK  137  A    between atoms: _336  and  _338
REMARK  138  A    between atoms: _338  and  _339
REMARK  139  A    between atoms: _338  and  _341
REMARK  140  A    between atoms: _341  and  _342
REMARK  141  A    between atoms: _348  and  _350
REMARK  142  A    between atoms: _350  and  _351
REMARK  143  A    between atoms: _350  and  _353
REMARK  144  A    between atoms: _356  and  _358
REMARK  145  A    between atoms: _358  and  _359
REMARK  146  A    between atoms: _358  and  _361
REMARK  147  A    between atoms: _361  and  _362
REMARK  148  A    between atoms: _365  and  _367
REMARK  149  A    between atoms: _367  and  _368
REMARK  150  A    between atoms: _367  and  _370
REMARK  151  A    between atoms: _370  and  _371
REMARK  152  A    between atoms: _374  and  _376
REMARK  153  A    between atoms: _376  and  _377
REMARK  154  A    between atoms: _376  and  _379
REMARK  155  A    between atoms: _379  and  _380
REMARK  156  A    between atoms: _383  and  _385
REMARK  157  A    between atoms: _385  and  _386
REMARK  158  A    between atoms: _385  and  _388
REMARK  159  A    between atoms: _388  and  _389
REMARK  160  A    between atoms: _392  and  _394
REMARK  161  A    between atoms: _394  and  _395
REMARK  162  A    between atoms: _394  and  _397
REMARK  163  A    between atoms: _397  and  _398
REMARK  164  A    between atoms: _403  and  _404
REMARK  165  A    between atoms: _406  and  _408
REMARK  166  A    between atoms: _408  and  _409
REMARK  167  A    between atoms: _408  and  _411
REMARK  168  A    between atoms: _411  and  _412
REMARK  169  A    between atoms: _417  and  _418
REMARK  170  A    between atoms: _420  and  _422
REMARK  171  A    between atoms: _422  and  _423
REMARK  172  A    between atoms: _422  and  _425
REMARK  173  A    between atoms: _425  and  _426
REMARK  174  A    between atoms: _429  and  _431
REMARK  175  A    between atoms: _431  and  _432
REMARK  176  A    between atoms: _431  and  _434
REMARK  177  A    between atoms: _434  and  _435
REMARK  178  A    between atoms: _435  and  _436
REMARK  179  A    between atoms: _441  and  _443
REMARK  180  A    between atoms: _443  and  _444
REMARK  181  A    between atoms: _443  and  _446
REMARK  182  A    between atoms: _449  and  _451
REMARK  183  A    between atoms: _451  and  _452
REMARK  184  A    between atoms: _451  and  _454
REMARK  185  A    between atoms: _454  and  _455
REMARK  186  A    between atoms: _458  and  _460
REMARK  187  A    between atoms: _460  and  _461
REMARK  188  A    between atoms: _460  and  _463
REMARK  189  A    between atoms: _463  and  _464
REMARK  190  A    between atoms: _466  and  _468
REMARK  191  A    between atoms: _468  and  _469
REMARK  192  A    between atoms: _471  and  _473
REMARK  193  A    between atoms: _473  and  _474
REMARK  194  A    between atoms: _473  and  _476
REMARK  195  A    between atoms: _476  and  _477
REMARK  196  A    between atoms: _477  and  _772
REMARK  197  A    between atoms: _478  and  _480
REMARK  198  A    between atoms: _480  and  _481
REMARK  199  A    between atoms: _480  and  _483
REMARK  200  A    between atoms: _483  and  _484
REMARK  201  A    between atoms: _489  and  _490
REMARK  202  A    between atoms: _492  and  _494
REMARK  203  A    between atoms: _494  and  _495
REMARK  204  A    between atoms: _494  and  _497
REMARK  205  A    between atoms: _497  and  _498
REMARK  206  A    between atoms: _498  and  _499
REMARK  207  A    between atoms: _504  and  _506
REMARK  208  A    between atoms: _506  and  _507
REMARK  209  A    between atoms: _506  and  _509
REMARK  210  A    between atoms: _509  and  _510
REMARK  211  A    between atoms: _510  and  _511
REMARK  212  A    between atoms: _516  and  _518
REMARK  213  A    between atoms: _518  and  _519
REMARK  214  A    between atoms: _518  and  _521
REMARK  215  A    between atoms: _521  and  _522
REMARK  216  A    between atoms: _527  and  _528
REMARK  217  A    between atoms: _530  and  _532
REMARK  218  A    between atoms: _532  and  _533
REMARK  219  A    between atoms: _536  and  _538
REMARK  220  A    between atoms: _538  and  _539
REMARK  221  A    between atoms: _538  and  _541
REMARK  222  A    between atoms: _541  and  _542
REMARK  223  A    between atoms: _547  and  _548
REMARK  224  A    between atoms: _550  and  _552
REMARK  225  A    between atoms: _552  and  _553
REMARK  226  A    between atoms: _552  and  _555
REMARK  227  A    between atoms: _555  and  _556
REMARK  228  A    between atoms: _561  and  _562
REMARK  229  A    between atoms: _564  and  _566
REMARK  230  A    between atoms: _566  and  _567
REMARK  231  A    between atoms: _566  and  _569
REMARK  232  A    between atoms: _569  and  _570
REMARK  233  A    between atoms: _573  and  _575
REMARK  234  A    between atoms: _575  and  _576
REMARK  235  A    between atoms: _575  and  _578
REMARK  236  A    between atoms: _578  and  _579
REMARK  237  A    between atoms: _589  and  _591
REMARK  238  A    between atoms: _591  and  _592
REMARK  239  A    between atoms: _595  and  _597
REMARK  240  A    between atoms: _597  and  _598
REMARK  241  A    between atoms: _601  and  _603
REMARK  242  A    between atoms: _603  and  _604
REMARK  243  A    between atoms: _603  and  _606
REMARK  244  A    between atoms: _606  and  _607
REMARK  245  A    between atoms: _610  and  _612
REMARK  246  A    between atoms: _612  and  _613
REMARK  247  A    between atoms: _612  and  _615
REMARK  248  A    between atoms: _615  and  _616
REMARK  249  A    between atoms: _619  and  _621
REMARK  250  A    between atoms: _621  and  _622
REMARK  251  A    between atoms: _621  and  _624
REMARK  252  A    between atoms: _624  and  _625
REMARK  253  A    between atoms: _628  and  _630
REMARK  254  A    between atoms: _630  and  _631
REMARK  255  A    between atoms: _630  and  _633
REMARK  256  A    between atoms: _633  and  _634
REMARK  257  A    between atoms: _634  and  _635
REMARK  258  A    between atoms: _635  and  _636
REMARK  259  A    between atoms: _636  and  _637
REMARK  260  A    between atoms: _641  and  _643
REMARK  261  A    between atoms: _643  and  _644
REMARK  262  A    between atoms: _643  and  _646
REMARK  263  A    between atoms: _646  and  _647
REMARK  264  A    between atoms: _652  and  _654
REMARK  265  A    between atoms: _654  and  _655
REMARK  266  A    between atoms: _654  and  _657
REMARK  267  A    between atoms: _657  and  _658
REMARK  268  A    between atoms: _658  and  _659
REMARK  269  A    between atoms: _659  and  _660
REMARK  270  A    between atoms: _660  and  _661
REMARK  271  A    between atoms: _665  and  _667
REMARK  272  A    between atoms: _667  and  _668
REMARK  273  A    between atoms: _667  and  _670
REMARK  274  A    between atoms: _670  and  _671
REMARK  275  A    between atoms: _681  and  _683
REMARK  276  A    between atoms: _683  and  _684
REMARK  277  A    between atoms: _687  and  _689
REMARK  278  A    between atoms: _689  and  _690
REMARK  279  A    between atoms: _692  and  _694
REMARK  280  A    between atoms: _694  and  _695
REMARK  281  A    between atoms: _694  and  _697
REMARK  282  A    between atoms: _697  and  _698
REMARK  283  A    between atoms: _698  and  _699
REMARK  284  A    between atoms: _702  and  _704
REMARK  285  A    between atoms: _704  and  _705
REMARK  286  A    between atoms: _708  and  _710
REMARK  287  A    between atoms: _710  and  _711
REMARK  288  A    between atoms: _710  and  _713
REMARK  289  A    between atoms: _713  and  _714
REMARK  290  A    between atoms: _714  and  _715
REMARK  291  A    between atoms: _715  and  _716
REMARK  292  A    between atoms: _725  and  _727
REMARK  293  A    between atoms: _727  and  _728
REMARK  294  A    between atoms: _727  and  _730
REMARK  295  A    between atoms: _730  and  _731
REMARK  296  A    between atoms: _734  and  _736
REMARK  297  A    between atoms: _736  and  _737
REMARK  298  A    between atoms: _736  and  _739
REMARK  299  A    between atoms: _739  and  _740
REMARK  300  A    between atoms: _745  and  _746
REMARK  301  A    between atoms: _748  and  _750
REMARK  302  A    between atoms: _750  and  _751
REMARK  303  A    between atoms: _750  and  _753
REMARK  304  A    between atoms: _753  and  _754
REMARK  305  A    between atoms: _757  and  _759
REMARK  306  A    between atoms: _759  and  _760
REMARK  307  A    between atoms: _759  and  _762
REMARK  308  A    between atoms: _762  and  _763
REMARK  309  A    between atoms: _766  and  _768
REMARK  310  A    between atoms: _768  and  _769
REMARK  311  A    between atoms: _768  and  _771
REMARK  312  A    between atoms: _771  and  _772
REMARK  313  A    between atoms: _773  and  _775
REMARK  314  A    between atoms: _775  and  _776
REMARK  315  A    between atoms: _775  and  _778
REMARK  316  A    between atoms: _781  and  _783
REMARK  317  A    between atoms: _783  and  _784
REMARK  318  A    between atoms: _783  and  _786
REMARK  319  A    between atoms: _786  and  _787
REMARK  320  A    between atoms: _787  and  _788
REMARK  321  A    between atoms: _791  and  _793
REMARK  322  A    between atoms: _793  and  _794
REMARK  323  A    between atoms: _793  and  _796
REMARK  324  A    between atoms: _796  and  _797
REMARK  325  A    between atoms: _807  and  _809
REMARK  326  A    between atoms: _809  and  _810
REMARK  327  A    between atoms: _809  and  _812
REMARK  328  A    between atoms: _812  and  _813
REMARK  329  A    between atoms: _816  and  _818
REMARK  330  A    between atoms: _818  and  _819
REMARK  331  A    between atoms: _818  and  _821
REMARK  332  A    between atoms: _821  and  _822
REMARK  333  A    between atoms: _822  and  _823
REMARK  334  A    between atoms: _823  and  _824
REMARK  335  A    between atoms: _833  and  _835
REMARK  336  A    between atoms: _835  and  _836
REMARK  337  A    between atoms: _835  and  _838
REMARK  338  A    between atoms: _838  and  _839
REMARK  339  A    between atoms: _844  and  _845
REMARK                            x       y       z     vdW  Elec       q    Type
REMARK                         _______ _______ _______ _____ _____    ______ ____
ROOT
ATOM      1  CA  ARG A   1      50.189  64.536  -8.950  0.00  0.00    +0.145 C 
ENDROOT
BRANCH   1   2
ATOM      2  C   ARG A   1      50.415  63.181  -8.282  0.00  0.00    +0.238 C 
ATOM      3  O   ARG A   1      50.762  63.103  -7.097  0.00  0.00    -0.274 OA
ATOM      4  N   LEU A   2      50.202  62.118  -9.048  0.00  0.00    -0.298 N 
ATOM      5  H   LEU A   2      49.899  62.245 -10.035  0.00  0.00    +0.150 HD
BRANCH   4   6
ATOM      6  CA  LEU A   2      50.389  60.778  -8.516  0.00  0.00    +0.137 C 
BRANCH   6   7
ATOM      7  C   LEU A   2      51.872  60.534  -8.277  0.00  0.00    +0.227 C 
ATOM      8  O   LEU A   2      52.252  59.983  -7.246  0.00  0.00    -0.286 OA
ENDBRANCH   6   7
BRANCH   6   9
ATOM      9  CB  LEU A   2      49.801  59.735  -9.473  0.00  0.00    +0.028 C 
BRANCH   9  10
ATOM     10  CG  LEU A   2      49.938  58.278  -9.009  0.00  0.00    +0.002 C 
ATOM     11  CD2 LEU A   2      49.502  58.135  -7.548  0.00  0.00    +0.000 C 
ATOM     12  CD1 LEU A   2      49.068  57.402  -9.889  0.00  0.00    +0.000 C 
ENDBRANCH   9  10
ENDBRANCH   6   9
ENDBRANCH   4   6
ENDBRANCH   1   2
BRANCH   1  13
ATOM     13  N   ARG A   1      50.671  64.512 -10.331  0.00  0.00    -0.238 NA
ATOM     14  H   ARG A   1      49.984  64.549 -11.111  0.00  0.00    +0.142 HD
ENDBRANCH   1  13
BRANCH   1  15
ATOM     15  CB  ARG A   1      48.701  64.888  -8.908  0.00  0.00    +0.030 C 
BRANCH  15  16
ATOM     16  CG  ARG A   1      48.432  66.363  -9.241  0.00  0.00    +0.045 C 
BRANCH  16  17
ATOM     17  CD  ARG A   1      47.041  66.796  -8.819  0.00  0.00    +0.174 C 
BRANCH  17  18
ATOM     18  NE  ARG A   1      46.016  66.391  -9.767  0.00  0.00    -0.265 N 
ATOM     19  HE  ARG A   1      45.385  65.609  -9.499  0.00  0.00    +0.259 HD
ATOM     20  CZ  ARG A   1      45.836  66.958 -10.954  0.00  0.00    +0.342 C 
ATOM     21  NH2 ARG A   1      46.618  67.960 -11.337  0.00  0.00    -0.292 N 
ATOM     22 HH21 ARG A   1      47.372  68.301 -10.707  0.00  0.00    +0.255 HD
ATOM     23 HH22 ARG A   1      46.477  68.404 -12.267  0.00  0.00    +0.255 HD
ATOM     24  NH1 ARG A   1      44.864  66.537 -11.748  0.00  0.00    -0.292 N 
ATOM     25 HH11 ARG A   1      44.241  65.762 -11.442  0.00  0.00    +0.255 HD
ATOM     26 HH12 ARG A   1      44.723  66.981 -12.678  0.00  0.00    +0.255 HD
ENDBRANCH  17  18
ENDBRANCH  16  17
ENDBRANCH  15  16
ENDBRANCH   1  15
TORSDOF 10
REMARK  Name = ../refined-set-2016/1fzo/1fzo_pocket.pdb
REMARK  339 active torsions:
REMARK  status: ('A' for Active; 'I' for Inactive)
REMARK    1  A    between atoms: _1  and  _3
REMARK    2  A    between atoms: _3  and  _4
REMARK    3  A    between atoms: _3  and  _6
REMARK    4  A    between atoms: _6  and  _7
REMARK    5  A    between atoms: _10  and  _12
REMARK    6  A    between atoms: _12  and  _13
REMARK    7  A    between atoms: _12  and  _15
REMARK    8  A    between atoms: _15  and  _16
REMARK    9  A    between atoms: _16  and  _17
REMARK   10  A    between atoms: _17  and  _18
REMARK   11  A    between atoms: _27  and  _29
REMARK   12  A    between atoms: _29  and  _30
REMARK   13  A    between atoms: _29  and  _32
REMARK   14  A    between atoms: _32  and  _33
REMARK   15  A    between atoms: _38  and  _39
REMARK   16  A    between atoms: _41  and  _43
REMARK   17  A    between atoms: _43  and  _44
REMARK   18  A    between atoms: _43  and  _46
REMARK   19  A    between atoms: _46  and  _47
REMARK   20  A    between atoms: _53  and  _55
REMARK   21  A    between atoms: _55  and  _56
REMARK   22  A    between atoms: _55  and  _58
REMARK   23  A    between atoms: _61  and  _63
REMARK   24  A    between atoms: _63  and  _64
REMARK   25  A    between atoms: _63  and  _66
REMARK   26  A    between atoms: _66  and  _67
REMARK   27  A    between atoms: _70  and  _72
REMARK   28  A    between atoms: _72  and  _73
REMARK   29  A    between atoms: _72  and  _75
REMARK   30  A    between atoms: _75  and  _76
REMARK   31  A    between atoms: _82  and  _84
REMARK   32  A    between atoms: _84  and  _85
REMARK   33  A    between atoms: _84  and  _87
REMARK   34  A    between atoms: _87  and  _88
REMARK   35  A    between atoms: _91  and  _93
REMARK   36  A    between atoms: _93  and  _94
REMARK   37  A    between atoms: _93  and  _96
REMARK   38  A    between atoms: _96  and  _97
REMARK   39  A    between atoms: _99  and  _101
REMARK   40  A    between atoms: _101  and  _102
REMARK   41  A    between atoms: _101  and  _104
REMARK   42  A    between atoms: _107  and  _109
REMARK   43  A    between atoms: _109  and  _110
REMARK   44  A    between atoms: _112  and  _114
REMARK   45  A    between atoms: _114  and  _115
REMARK   46  A    between atoms: _114  and  _117
REMARK   47  A    between atoms: _120  and  _122
REMARK   48  A    between atoms: _122  and  _123
REMARK   49  A    between atoms: _122  and  _125
REMARK   50  A    between atoms: _125  and  _126
REMARK   51  A    between atoms: _132  and  _134
REMARK   52  A    between atoms: _134  and  _135
REMARK   53  A    between atoms: _134  and  _137
REMARK   54  A    between atoms: _140  and  _142
REMARK   55  A    between atoms: _142  and  _143
REMARK   56  A    between atoms: _142  and  _145
REMARK   57  A    between atoms: _145  and  _146
REMARK   58  A    between atoms: _151  and  _152
REMARK   59  A    between atoms: _154  and  _156
REMARK   60  A    between atoms: _156  and  _157
REMARK   61  A    between atoms: _156  and  _159
REMARK   62  A    between atoms: _159  and  _160
REMARK   63  A    between atoms: _160  and  _161
REMARK   64  A    between atoms: _163  and  _165
REMARK   65  A    between atoms: _165  and  _166
REMARK   66  A    between atoms: _165  and  _168
REMARK   67  A    between atoms: _168  and  _169
REMARK   68  A    between atoms: _169  and  _170
REMARK   69  A    between atoms: _173  and  _175
REMARK   70  A    between atoms: _175  and  _176
REMARK   71  A    between atoms: _175  and  _178
REMARK   72  A    between atoms: _178  and  _179
REMARK   73  A    between atoms: _179  and  _180
REMARK   74  A    between atoms: _183  and  _185
REMARK   75  A    between atoms: _185  and  _186
REMARK   76  A    between atoms: _185  and  _188
REMARK   77  A    between atoms: _188  and  _189
REMARK   78  A    between atoms: _194  and  _195
REMARK   79  A    between atoms: _197  and  _199
REMARK   80  A    between atoms: _199  and  _200
REMARK   81  A    between atoms: _199  and  _202
REMARK   82  A    between atoms: _202  and  _203
REMARK   83  A    between atoms: _213  and  _215
REMARK   84  A    between atoms: _215  and  _216
REMARK   85  A    between atoms: _215  and  _218
REMARK   86  A    between atoms: _218  and  _219
REMARK   87  A    between atoms: _219  and  _220
REMARK   88  A    between atoms: _223  and  _225
REMARK   89  A    between atoms: _225  and  _226
REMARK   90  A    between atoms: _225  and  _228
REMARK   91  A    between atoms: _228  and  _229
REMARK   92  A    between atoms: _229  and  _230
REMARK   93  A    between atoms: _230  and  _231
REMARK   94  A    between atoms: _240  and  _242
REMARK   95  A    between atoms: _242  and  _243
REMARK   96  A    between atoms: _242  and  _245
REMARK   97  A    between atoms: _245  and  _246
REMARK   98  A    between atoms: _246  and  _247
REMARK   99  A    between atoms: _250  and  _252
REMARK  100  A    between atoms: _252  and  _253
REMARK  101  A    between atoms: _252  and  _255
REMARK  102  A    between atoms: _255  and  _256
REMARK  103  A    between atoms: _259  and  _261
REMARK  104  A    between atoms: _261  and  _262
REMARK  105  A    between atoms: _261  and  _264
REMARK  106  A    between atoms: _264  and  _265
REMARK  107  A    between atoms: _265  and  _266
REMARK  108  A    between atoms: _271  and  _273
REMARK  109  A    between atoms: _273  and  _274
REMARK  110  A    between atoms: _273  and  _276
REMARK  111  A    between atoms: _276  and  _277
REMARK  112  A    between atoms: _277  and  _278
REMARK  113  A    between atoms: _278  and  _279
REMARK  114  A    between atoms: _279  and  _280
REMARK  115  A    between atoms: _284  and  _286
REMARK  116  A    between atoms: _286  and  _287
REMARK  117  A    between atoms: _290  and  _292
REMARK  118  A    between atoms: _292  and  _293
REMARK  119  A    between atoms: _295  and  _297
REMARK  120  A    between atoms: _297  and  _298
REMARK  121  A    between atoms: _297  and  _300
REMARK  122  A    between atoms: _300  and  _301
REMARK  123  A    between atoms: _306  and  _308
REMARK  124  A    between atoms: _308  and  _309
REMARK  125  A    between atoms: _308  and  _311
REMARK  126  A    between atoms: _311  and  _312
REMARK  127  A    between atoms: _312  and  _313
REMARK  128  A    between atoms: _316  and  _318
REMARK  129  A    between atoms: _318  and  _319
REMARK  130  A    between atoms: _318  and  _321
REMARK  131  A    between atoms: _321  and  _322
REMARK  132  A    between atoms: _322  and  _323
REMARK  133  A    between atoms: _328  and  _330
REMARK  134  A    between atoms: _330  and  _331
REMARK  135  A    between atoms: _330  and  _333
REMARK  136  A    between atoms: _333  and  _334
REMARK  137  A    between atoms: _336  and  _338
REMARK  138  A    between atoms: _338  and  _339
REMARK  139  A    between atoms: _338  and  _341
REMARK  140  A    between atoms: _341  and  _342
REMARK  141  A    between atoms: _348  and  _350
REMARK  142  A    between atoms: _350  and  _351
REMARK  143  A    between atoms: _350  and  _353
REMARK  144  A    between atoms: _356  and  _358
REMARK  145  A    between atoms: _358  and  _359
REMARK  146  A    between atoms: _358  and  _361
REMARK  147  A    between atoms: _361  and  _362
REMARK  148  A    between atoms: _365  and  _367
REMARK  149  A    between atoms: _367  and  _368
REMARK  150  A    between atoms: _367  and  _370
REMARK  151  A    between atoms: _370  and  _371
REMARK  152  A    between atoms: _374  and  _376
REMARK  153  A    between atoms: _376  and  _377
REMARK  154  A    between atoms: _376  and  _379
REMARK  155  A    between atoms: _379  and  _380
REMARK  156  A    between atoms: _383  and  _385
REMARK  157  A    between atoms: _385  and  _386
REMARK  158  A    between atoms: _385  and  _388
REMARK  159  A    between atoms: _388  and  _389
REMARK  160  A    between atoms: _392  and  _394
REMARK  161  A    between atoms: _394  and  _395
REMARK  162  A    between atoms: _394  and  _397
REMARK  163  A    between atoms: _397  and  _398
REMARK  164  A    between atoms: _403  and  _404
REMARK  165  A    between atoms: _406  and  _408
REMARK  166  A    between atoms: _408  and  _409
REMARK  167  A    between atoms: _408  and  _411
REMARK  168  A    between atoms: _411  and  _412
REMARK  169  A    between atoms: _417  and  _418
REMARK  170  A    between atoms: _420  and  _422
REMARK  171  A    between atoms: _422  and  _423
REMARK  172  A    between atoms: _422  and  _425
REMARK  173  A    between atoms: _425  and  _426
REMARK  174  A    between atoms: _429  and  _431
REMARK  175  A    between atoms: _431  and  _432
REMARK  176  A    between atoms: _431  and  _434
REMARK  177  A    between atoms: _434  and  _435
REMARK  178  A    between atoms: _435  and  _436
REMARK  179  A    between atoms: _441  and  _443
REMARK  180  A    between atoms: _443  and  _444
REMARK  181  A    between atoms: _443  and  _446
REMARK  182  A    between atoms: _449  and  _451
REMARK  183  A    between atoms: _451  and  _452
REMARK  184  A    between atoms: _451  and  _454
REMARK  185  A    between atoms: _454  and  _455
REMARK  186  A    between atoms: _458  and  _460
REMARK  187  A    between atoms: _460  and  _461
REMARK  188  A    between atoms: _460  and  _463
REMARK  189  A    between atoms: _463  and  _464
REMARK  190  A    between atoms: _466  and  _468
REMARK  191  A    between atoms: _468  and  _469
REMARK  192  A    between atoms: _471  and  _473
REMARK  193  A    between atoms: _473  and  _474
REMARK  194  A    between atoms: _473  and  _476
REMARK  195  A    between atoms: _476  and  _477
REMARK  196  A    between atoms: _477  and  _772
REMARK  197  A    between atoms: _478  and  _480
REMARK  198  A    between atoms: _480  and  _481
REMARK  199  A    between atoms: _480  and  _483
REMARK  200  A    between atoms: _483  and  _484
REMARK  201  A    between atoms: _489  and  _490
REMARK  202  A    between atoms: _492  and  _494
REMARK  203  A    between atoms: _494  and  _495
REMARK  204  A    between atoms: _494  and  _497
REMARK  205  A    between atoms: _497  and  _498
REMARK  206  A    between atoms: _498  and  _499
REMARK  207  A    between atoms: _504  and  _506
REMARK  208  A    between atoms: _506  and  _507
REMARK  209  A    between atoms: _506  and  _509
REMARK  210  A    between atoms: _509  and  _510
REMARK  211  A    between atoms: _510  and  _511
REMARK  212  A    between atoms: _516  and  _518
REMARK  213  A    between atoms: _518  and  _519
REMARK  214  A    between atoms: _518  and  _521
REMARK  215  A    between atoms: _521  and  _522
REMARK  216  A    between atoms: _527  and  _528
REMARK  217  A    between atoms: _530  and  _532
REMARK  218  A    between atoms: _532  and  _533
REMARK  219  A    between atoms: _536  and  _538
REMARK  220  A    between atoms: _538  and  _539
REMARK  221  A    between atoms: _538  and  _541
REMARK  222  A    between atoms: _541  and  _542
REMARK  223  A    between atoms: _547  and  _548
REMARK  224  A    between atoms: _550  and  _552
REMARK  225  A    between atoms: _552  and  _553
REMARK  226  A    between atoms: _552  and  _555
REMARK  227  A    between atoms: _555  and  _556
REMARK  228  A    between atoms: _561  and  _562
REMARK  229  A    between atoms: _564  and  _566
REMARK  230  A    between atoms: _566  and  _567
REMARK  231  A    between atoms: _566  and  _569
REMARK  232  A    between atoms: _569  and  _570
REMARK  233  A    between atoms: _573  and  _575
REMARK  234  A    between atoms: _575  and  _576
REMARK  235  A    between atoms: _575  and  _578
REMARK  236  A    between atoms: _578  and  _579
REMARK  237  A    between atoms: _589  and  _591
REMARK  238  A    between atoms: _591  and  _592
REMARK  239  A    between atoms: _595  and  _597
REMARK  240  A    between atoms: _597  and  _598
REMARK  241  A    between atoms: _601  and  _603
REMARK  242  A    between atoms: _603  and  _604
REMARK  243  A    between atoms: _603  and  _606
REMARK  244  A    between atoms: _606  and  _607
REMARK  245  A    between atoms: _610  and  _612
REMARK  246  A    between atoms: _612  and  _613
REMARK  247  A    between atoms: _612  and  _615
REMARK  248  A    between atoms: _615  and  _616
REMARK  249  A    between atoms: _619  and  _621
REMARK  250  A    between atoms: _621  and  _622
REMARK  251  A    between atoms: _621  and  _624
REMARK  252  A    between atoms: _624  and  _625
REMARK  253  A    between atoms: _628  and  _630
REMARK  254  A    between atoms: _630  and  _631
REMARK  255  A    between atoms: _630  and  _633
REMARK  256  A    between atoms: _633  and  _634
REMARK  257  A    between atoms: _634  and  _635
REMARK  258  A    between atoms: _635  and  _636
REMARK  259  A    between atoms: _636  and  _637
REMARK  260  A    between atoms: _641  and  _643
REMARK  261  A    between atoms: _643  and  _644
REMARK  262  A    between atoms: _643  and  _646
REMARK  263  A    between atoms: _646  and  _647
REMARK  264  A    between atoms: _652  and  _654
REMARK  265  A    between atoms: _654  and  _655
REMARK  266  A    between atoms: _654  and  _657
REMARK  267  A    between atoms: _657  and  _658
REMARK  268  A    between atoms: _658  and  _659
REMARK  269  A    between atoms: _659  and  _660
REMARK  270  A    between atoms: _660  and  _661
REMARK  271  A    between atoms: _665  and  _667
REMARK  272  A    between atoms: _667  and  _668
REMARK  273  A    between atoms: _667  and  _670
REMARK  274  A    between atoms: _670  and  _671
REMARK  275  A    between atoms: _681  and  _683
REMARK  276  A    between atoms: _683  and  _684
REMARK  277  A    between atoms: _687  and  _689
REMARK  278  A    between atoms: _689  and  _690
REMARK  279  A    between atoms: _692  and  _694
REMARK  280  A    between atoms: _694  and  _695
REMARK  281  A    between atoms: _694  and  _697
REMARK  282  A    between atoms: _697  and  _698
REMARK  283  A    between atoms: _698  and  _699
REMARK  284  A    between atoms: _702  and  _704
REMARK  285  A    between atoms: _704  and  _705
REMARK  286  A    between atoms: _708  and  _710
REMARK  287  A    between atoms: _710  and  _711
REMARK  288  A    between atoms: _710  and  _713
REMARK  289  A    between atoms: _713  and  _714
REMARK  290  A    between atoms: _714  and  _715
REMARK  291  A    between atoms: _715  and  _716
REMARK  292  A    between atoms: _725  and  _727
REMARK  293  A    between atoms: _727  and  _728
REMARK  294  A    between atoms: _727  and  _730
REMARK  295  A    between atoms: _730  and  _731
REMARK  296  A    between atoms: _734  and  _736
REMARK  297  A    between atoms: _736  and  _737
REMARK  298  A    between atoms: _736  and  _739
REMARK  299  A    between atoms: _739  and  _740
REMARK  300  A    between atoms: _745  and  _746
REMARK  301  A    between atoms: _748  and  _750
REMARK  302  A    between atoms: _750  and  _751
REMARK  303  A    between atoms: _750  and  _753
REMARK  304  A    between atoms: _753  and  _754
REMARK  305  A    between atoms: _757  and  _759
REMARK  306  A    between atoms: _759  and  _760
REMARK  307  A    between atoms: _759  and  _762
REMARK  308  A    between atoms: _762  and  _763
REMARK  309  A    between atoms: _766  and  _768
REMARK  310  A    between atoms: _768  and  _769
REMARK  311  A    between atoms: _768  and  _771
REMARK  312  A    between atoms: _771  and  _772
REMARK  313  A    between atoms: _773  and  _775
REMARK  314  A    between atoms: _775  and  _776
REMARK  315  A    between atoms: _775  and  _778
REMARK  316  A    between atoms: _781  and  _783
REMARK  317  A    between atoms: _783  and  _784
REMARK  318  A    between atoms: _783  and  _786
REMARK  319  A    between atoms: _786  and  _787
REMARK  320  A    between atoms: _787  and  _788
REMARK  321  A    between atoms: _791  and  _793
REMARK  322  A    between atoms: _793  and  _794
REMARK  323  A    between atoms: _793  and  _796
REMARK  324  A    between atoms: _796  and  _797
REMARK  325  A    between atoms: _807  and  _809
REMARK  326  A    between atoms: _809  and  _810
REMARK  327  A    between atoms: _809  and  _812
REMARK  328  A    between atoms: _812  and  _813
REMARK  329  A    between atoms: _816  and  _818
REMARK  330  A    between atoms: _818  and  _819
REMARK  331  A    between atoms: _818  and  _821
REMARK  332  A    between atoms: _821  and  _822
REMARK  333  A    between atoms: _822  and  _823
REMARK  334  A    between atoms: _823  and  _824
REMARK  335  A    between atoms: _833  and  _835
REMARK  336  A    between atoms: _835  and  _836
REMARK  337  A    between atoms: _835  and  _838
REMARK  338  A    between atoms: _838  and  _839
REMARK  339  A    between atoms: _844  and  _845
REMARK                            x       y       z     vdW  Elec       q    Type
REMARK                         _______ _______ _______ _____ _____    ______ ____
ROOT
ATOM      1  CA  TYR A   1      52.517  61.247  -3.943  0.00  0.00    +0.149 C 
ENDROOT
BRANCH   1   2
ATOM      2  C   TYR A   1      53.443  60.035  -3.775  0.00  0.00    +0.239 C 
ATOM      3  O   TYR A   1      53.942  59.764  -2.679  0.00  0.00    -0.274 OA
ATOM      4  N   LEU A   2      53.699  59.318  -4.863  0.00  0.00    -0.298 N 
ATOM      5  H   LEU A   2      53.305  59.607  -5.781  0.00  0.00    +0.150 HD
BRANCH   4   6
ATOM      6  CA  LEU A   2      54.539  58.117  -4.769  0.00  0.00    +0.137 C 
BRANCH   6   7
ATOM      7  C   LEU A   2      55.981  58.357  -4.340  0.00  0.00    +0.227 C 
ATOM      8  O   LEU A   2      56.528  57.586  -3.544  0.00  0.00    -0.286 OA
ENDBRANCH   6   7
BRANCH   6   9
ATOM      9  CB  LEU A   2      54.515  57.342  -6.096  0.00  0.00    +0.028 C 
BRANCH   9  10
ATOM     10  CG  LEU A   2      53.140  56.808  -6.514  0.00  0.00    +0.002 C 
ATOM     11  CD2 LEU A   2      52.660  55.712  -5.536  0.00  0.00    +0.000 C 
ATOM     12  CD1 LEU A   2      53.229  56.281  -7.938  0.00  0.00    +0.000 C 
ENDBRANCH   9  10
ENDBRANCH   6   9
ENDBRANCH   4   6
ENDBRANCH   1   2
BRANCH   1  13
ATOM     13  N   TYR A   1      52.943  62.055  -5.083  0.00  0.00    -0.238 NA
ATOM     14  H   TYR A   1      52.331  62.118  -5.921  0.00  0.00    +0.142 HD
ENDBRANCH   1  13
BRANCH   1  15
ATOM     15  CB  TYR A   1      51.073  60.752  -4.132  0.00  0.00    +0.053 C 
BRANCH  15  16
ATOM     16  CG  TYR A   1      50.683  59.647  -3.174  0.00  0.00    -0.020 A 
ATOM     17  CD2 TYR A   1      50.366  59.929  -1.855  0.00  0.00    -0.001 A 
ATOM     18  CE2 TYR A   1      50.077  58.926  -0.950  0.00  0.00    +0.036 A 
ATOM     19  CZ  TYR A   1      50.115  57.596  -1.369  0.00  0.00    +0.134 A 
ATOM     20  CE1 TYR A   1      50.421  57.288  -2.680  0.00  0.00    +0.036 A 
ATOM     21  CD1 TYR A   1      50.700  58.309  -3.578  0.00  0.00    -0.001 A 
BRANCH  19  22
ATOM     22  OH  TYR A   1      49.891  56.587  -0.472  0.00  0.00    -0.506 OA
ATOM     23  HH  TYR A   1      49.686  56.975   0.415  0.00  0.00    +0.292 HD
ENDBRANCH  19  22
ENDBRANCH  15  16
ENDBRANCH   1  15
TORSDOF 9
REMARK  Name = ../refined-set-2016/1fzo/1fzo_pocket.pdb
REMARK  339 active torsions:
REMARK  status: ('A' for Active; 'I' for Inactive)
REMARK    1  A    between atoms: _1  and  _3
REMARK    2  A    between atoms: _3  and  _4
REMARK    3  A    between atoms: _3  and  _6
REMARK    4  A    between atoms: _6  and  _7
REMARK    5  A    between atoms: _10  and  _12
REMARK    6  A    between atoms: _12  and  _13
REMARK    7  A    between atoms: _12  and  _15
REMARK    8  A    between atoms: _15  and  _16
REMARK    9  A    between atoms: _16  and  _17
REMARK   10  A    between atoms: _17  and  _18
REMARK   11  A    between atoms: _27  and  _29
REMARK   12  A    between atoms: _29  and  _30
REMARK   13  A    between atoms: _29  and  _32
REMARK   14  A    between atoms: _32  and  _33
REMARK   15  A    between atoms: _38  and  _39
REMARK   16  A    between atoms: _41  and  _43
REMARK   17  A    between atoms: _43  and  _44
REMARK   18  A    between atoms: _43  and  _46
REMARK   19  A    between atoms: _46  and  _47
REMARK   20  A    between atoms: _53  and  _55
REMARK   21  A    between atoms: _55  and  _56
REMARK   22  A    between atoms: _55  and  _58
REMARK   23  A    between atoms: _61  and  _63
REMARK   24  A    between atoms: _63  and  _64
REMARK   25  A    between atoms: _63  and  _66
REMARK   26  A    between atoms: _66  and  _67
REMARK   27  A    between atoms: _70  and  _72
REMARK   28  A    between atoms: _72  and  _73
REMARK   29  A    between atoms: _72  and  _75
REMARK   30  A    between atoms: _75  and  _76
REMARK   31  A    between atoms: _82  and  _84
REMARK   32  A    between atoms: _84  and  _85
REMARK   33  A    between atoms: _84  and  _87
REMARK   34  A    between atoms: _87  and  _88
REMARK   35  A    between atoms: _91  and  _93
REMARK   36  A    between atoms: _93  and  _94
REMARK   37  A    between atoms: _93  and  _96
REMARK   38  A    between atoms: _96  and  _97
REMARK   39  A    between atoms: _99  and  _101
REMARK   40  A    between atoms: _101  and  _102
REMARK   41  A    between atoms: _101  and  _104
REMARK   42  A    between atoms: _107  and  _109
REMARK   43  A    between atoms: _109  and  _110
REMARK   44  A    between atoms: _112  and  _114
REMARK   45  A    between atoms: _114  and  _115
REMARK   46  A    between atoms: _114  and  _117
REMARK   47  A    between atoms: _120  and  _122
REMARK   48  A    between atoms: _122  and  _123
REMARK   49  A    between atoms: _122  and  _125
REMARK   50  A    between atoms: _125  and  _126
REMARK   51  A    between atoms: _132  and  _134
REMARK   52  A    between atoms: _134  and  _135
REMARK   53  A    between atoms: _134  and  _137
REMARK   54  A    between atoms: _140  and  _142
REMARK   55  A    between atoms: _142  and  _143
REMARK   56  A    between atoms: _142  and  _145
REMARK   57  A    between atoms: _145  and  _146
REMARK   58  A    between atoms: _151  and  _152
REMARK   59  A    between atoms: _154  and  _156
REMARK   60  A    between atoms: _156  and  _157
REMARK   61  A    between atoms: _156  and  _159
REMARK   62  A    between atoms: _159  and  _160
REMARK   63  A    between atoms: _160  and  _161
REMARK   64  A    between atoms: _163  and  _165
REMARK   65  A    between atoms: _165  and  _166
REMARK   66  A    between atoms: _165  and  _168
REMARK   67  A    between atoms: _168  and  _169
REMARK   68  A    between atoms: _169  and  _170
REMARK   69  A    between atoms: _173  and  _175
REMARK   70  A    between atoms: _175  and  _176
REMARK   71  A    between atoms: _175  and  _178
REMARK   72  A    between atoms: _178  and  _179
REMARK   73  A    between atoms: _179  and  _180
REMARK   74  A    between atoms: _183  and  _185
REMARK   75  A    between atoms: _185  and  _186
REMARK   76  A    between atoms: _185  and  _188
REMARK   77  A    between atoms: _188  and  _189
REMARK   78  A    between atoms: _194  and  _195
REMARK   79  A    between atoms: _197  and  _199
REMARK   80  A    between atoms: _199  and  _200
REMARK   81  A    between atoms: _199  and  _202
REMARK   82  A    between atoms: _202  and  _203
REMARK   83  A    between atoms: _213  and  _215
REMARK   84  A    between atoms: _215  and  _216
REMARK   85  A    between atoms: _215  and  _218
REMARK   86  A    between atoms: _218  and  _219
REMARK   87  A    between atoms: _219  and  _220
REMARK   88  A    between atoms: _223  and  _225
REMARK   89  A    between atoms: _225  and  _226
REMARK   90  A    between atoms: _225  and  _228
REMARK   91  A    between atoms: _228  and  _229
REMARK   92  A    between atoms: _229  and  _230
REMARK   93  A    between atoms: _230  and  _231
REMARK   94  A    between atoms: _240  and  _242
REMARK   95  A    between atoms: _242  and  _243
REMARK   96  A    between atoms: _242  and  _245
REMARK   97  A    between atoms: _245  and  _246
REMARK   98  A    between atoms: _246  and  _247
REMARK   99  A    between atoms: _250  and  _252
REMARK  100  A    between atoms: _252  and  _253
REMARK  101  A    between atoms: _252  and  _255
REMARK  102  A    between atoms: _255  and  _256
REMARK  103  A    between atoms: _259  and  _261
REMARK  104  A    between atoms: _261  and  _262
REMARK  105  A    between atoms: _261  and  _264
REMARK  106  A    between atoms: _264  and  _265
REMARK  107  A    between atoms: _265  and  _266
REMARK  108  A    between atoms: _271  and  _273
REMARK  109  A    between atoms: _273  and  _274
REMARK  110  A    between atoms: _273  and  _276
REMARK  111  A    between atoms: _276  and  _277
REMARK  112  A    between atoms: _277  and  _278
REMARK  113  A    between atoms: _278  and  _279
REMARK  114  A    between atoms: _279  and  _280
REMARK  115  A    between atoms: _284  and  _286
REMARK  116  A    between atoms: _286  and  _287
REMARK  117  A    between atoms: _290  and  _292
REMARK  118  A    between atoms: _292  and  _293
REMARK  119  A    between atoms: _295  and  _297
REMARK  120  A    between atoms: _297  and  _298
REMARK  121  A    between atoms: _297  and  _300
REMARK  122  A    between atoms: _300  and  _301
REMARK  123  A    between atoms: _306  and  _308
REMARK  124  A    between atoms: _308  and  _309
REMARK  125  A    between atoms: _308  and  _311
REMARK  126  A    between atoms: _311  and  _312
REMARK  127  A    between atoms: _312  and  _313
REMARK  128  A    between atoms: _316  and  _318
REMARK  129  A    between atoms: _318  and  _319
REMARK  130  A    between atoms: _318  and  _321
REMARK  131  A    between atoms: _321  and  _322
REMARK  132  A    between atoms: _322  and  _323
REMARK  133  A    between atoms: _328  and  _330
REMARK  134  A    between atoms: _330  and  _331
REMARK  135  A    between atoms: _330  and  _333
REMARK  136  A    between atoms: _333  and  _334
REMARK  137  A    between atoms: _336  and  _338
REMARK  138  A    between atoms: _338  and  _339
REMARK  139  A    between atoms: _338  and  _341
REMARK  140  A    between atoms: _341  and  _342
REMARK  141  A    between atoms: _348  and  _350
REMARK  142  A    between atoms: _350  and  _351
REMARK  143  A    between atoms: _350  and  _353
REMARK  144  A    between atoms: _356  and  _358
REMARK  145  A    between atoms: _358  and  _359
REMARK  146  A    between atoms: _358  and  _361
REMARK  147  A    between atoms: _361  and  _362
REMARK  148  A    between atoms: _365  and  _367
REMARK  149  A    between atoms: _367  and  _368
REMARK  150  A    between atoms: _367  and  _370
REMARK  151  A    between atoms: _370  and  _371
REMARK  152  A    between atoms: _374  and  _376
REMARK  153  A    between atoms: _376  and  _377
REMARK  154  A    between atoms: _376  and  _379
REMARK  155  A    between atoms: _379  and  _380
REMARK  156  A    between atoms: _383  and  _385
REMARK  157  A    between atoms: _385  and  _386
REMARK  158  A    between atoms: _385  and  _388
REMARK  159  A    between atoms: _388  and  _389
REMARK  160  A    between atoms: _392  and  _394
REMARK  161  A    between atoms: _394  and  _395
REMARK  162  A    between atoms: _394  and  _397
REMARK  163  A    between atoms: _397  and  _398
REMARK  164  A    between atoms: _403  and  _404
REMARK  165  A    between atoms: _406  and  _408
REMARK  166  A    between atoms: _408  and  _409
REMARK  167  A    between atoms: _408  and  _411
REMARK  168  A    between atoms: _411  and  _412
REMARK  169  A    between atoms: _417  and  _418
REMARK  170  A    between atoms: _420  and  _422
REMARK  171  A    between atoms: _422  and  _423
REMARK  172  A    between atoms: _422  and  _425
REMARK  173  A    between atoms: _425  and  _426
REMARK  174  A    between atoms: _429  and  _431
REMARK  175  A    between atoms: _431  and  _432
REMARK  176  A    between atoms: _431  and  _434
REMARK  177  A    between atoms: _434  and  _435
REMARK  178  A    between atoms: _435  and  _436
REMARK  179  A    between atoms: _441  and  _443
REMARK  180  A    between atoms: _443  and  _444
REMARK  181  A    between atoms: _443  and  _446
REMARK  182  A    between atoms: _449  and  _451
REMARK  183  A    between atoms: _451  and  _452
REMARK  184  A    between atoms: _451  and  _454
REMARK  185  A    between atoms: _454  and  _455
REMARK  186  A    between atoms: _458  and  _460
REMARK  187  A    between atoms: _460  and  _461
REMARK  188  A    between atoms: _460  and  _463
REMARK  189  A    between atoms: _463  and  _464
REMARK  190  A    between atoms: _466  and  _468
REMARK  191  A    between atoms: _468  and  _469
REMARK  192  A    between atoms: _471  and  _473
REMARK  193  A    between atoms: _473  and  _474
REMARK  194  A    between atoms: _473  and  _476
REMARK  195  A    between atoms: _476  and  _477
REMARK  196  A    between atoms: _477  and  _772
REMARK  197  A    between atoms: _478  and  _480
REMARK  198  A    between atoms: _480  and  _481
REMARK  199  A    between atoms: _480  and  _483
REMARK  200  A    between atoms: _483  and  _484
REMARK  201  A    between atoms: _489  and  _490
REMARK  202  A    between atoms: _492  and  _494
REMARK  203  A    between atoms: _494  and  _495
REMARK  204  A    between atoms: _494  and  _497
REMARK  205  A    between atoms: _497  and  _498
REMARK  206  A    between atoms: _498  and  _499
REMARK  207  A    between atoms: _504  and  _506
REMARK  208  A    between atoms: _506  and  _507
REMARK  209  A    between atoms: _506  and  _509
REMARK  210  A    between atoms: _509  and  _510
REMARK  211  A    between atoms: _510  and  _511
REMARK  212  A    between atoms: _516  and  _518
REMARK  213  A    between atoms: _518  and  _519
REMARK  214  A    between atoms: _518  and  _521
REMARK  215  A    between atoms: _521  and  _522
REMARK  216  A    between atoms: _527  and  _528
REMARK  217  A    between atoms: _530  and  _532
REMARK  218  A    between atoms: _532  and  _533
REMARK  219  A    between atoms: _536  and  _538
REMARK  220  A    between atoms: _538  and  _539
REMARK  221  A    between atoms: _538  and  _541
REMARK  222  A    between atoms: _541  and  _542
REMARK  223  A    between atoms: _547  and  _548
REMARK  224  A    between atoms: _550  and  _552
REMARK  225  A    between atoms: _552  and  _553
REMARK  226  A    between atoms: _552  and  _555
REMARK  227  A    between atoms: _555  and  _556
REMARK  228  A    between atoms: _561  and  _562
REMARK  229  A    between atoms: _564  and  _566
REMARK  230  A    between atoms: _566  and  _567
REMARK  231  A    between atoms: _566  and  _569
REMARK  232  A    between atoms: _569  and  _570
REMARK  233  A    between atoms: _573  and  _575
REMARK  234  A    between atoms: _575  and  _576
REMARK  235  A    between atoms: _575  and  _578
REMARK  236  A    between atoms: _578  and  _579
REMARK  237  A    between atoms: _589  and  _591
REMARK  238  A    between atoms: _591  and  _592
REMARK  239  A    between atoms: _595  and  _597
REMARK  240  A    between atoms: _597  and  _598
REMARK  241  A    between atoms: _601  and  _603
REMARK  242  A    between atoms: _603  and  _604
REMARK  243  A    between atoms: _603  and  _606
REMARK  244  A    between atoms: _606  and  _607
REMARK  245  A    between atoms: _610  and  _612
REMARK  246  A    between atoms: _612  and  _613
REMARK  247  A    between atoms: _612  and  _615
REMARK  248  A    between atoms: _615  and  _616
REMARK  249  A    between atoms: _619  and  _621
REMARK  250  A    between atoms: _621  and  _622
REMARK  251  A    between atoms: _621  and  _624
REMARK  252  A    between atoms: _624  and  _625
REMARK  253  A    between atoms: _628  and  _630
REMARK  254  A    between atoms: _630  and  _631
REMARK  255  A    between atoms: _630  and  _633
REMARK  256  A    between atoms: _633  and  _634
REMARK  257  A    between atoms: _634  and  _635
REMARK  258  A    between atoms: _635  and  _636
REMARK  259  A    between atoms: _636  and  _637
REMARK  260  A    between atoms: _641  and  _643
REMARK  261  A    between atoms: _643  and  _644
REMARK  262  A    between atoms: _643  and  _646
REMARK  263  A    between atoms: _646  and  _647
REMARK  264  A    between atoms: _652  and  _654
REMARK  265  A    between atoms: _654  and  _655
REMARK  266  A    between atoms: _654  and  _657
REMARK  267  A    between atoms: _657  and  _658
REMARK  268  A    between atoms: _658  and  _659
REMARK  269  A    between atoms: _659  and  _660
REMARK  270  A    between atoms: _660  and  _661
REMARK  271  A    between atoms: _665  and  _667
REMARK  272  A    between atoms: _667  and  _668
REMARK  273  A    between atoms: _667  and  _670
REMARK  274  A    between atoms: _670  and  _671
REMARK  275  A    between atoms: _681  and  _683
REMARK  276  A    between atoms: _683  and  _684
REMARK  277  A    between atoms: _687  and  _689
REMARK  278  A    between atoms: _689  and  _690
REMARK  279  A    between atoms: _692  and  _694
REMARK  280  A    between atoms: _694  and  _695
REMARK  281  A    between atoms: _694  and  _697
REMARK  282  A    between atoms: _697  and  _698
REMARK  283  A    between atoms: _698  and  _699
REMARK  284  A    between atoms: _702  and  _704
REMARK  285  A    between atoms: _704  and  _705
REMARK  286  A    between atoms: _708  and  _710
REMARK  287  A    between atoms: _710  and  _711
REMARK  288  A    between atoms: _710  and  _713
REMARK  289  A    between atoms: _713  and  _714
REMARK  290  A    between atoms: _714  and  _715
REMARK  291  A    between atoms: _715  and  _716
REMARK  292  A    between atoms: _725  and  _727
REMARK  293  A    between atoms: _727  and  _728
REMARK  294  A    between atoms: _727  and  _730
REMARK  295  A    between atoms: _730  and  _731
REMARK  296  A    between atoms: _734  and  _736
REMARK  297  A    between atoms: _736  and  _737
REMARK  298  A    between atoms: _736  and  _739
REMARK  299  A    between atoms: _739  and  _740
REMARK  300  A    between atoms: _745  and  _746
REMARK  301  A    between atoms: _748  and  _750
REMARK  302  A    between atoms: _750  and  _751
REMARK  303  A    between atoms: _750  and  _753
REMARK  304  A    between atoms: _753  and  _754
REMARK  305  A    between atoms: _757  and  _759
REMARK  306  A    between atoms: _759  and  _760
REMARK  307  A    between atoms: _759  and  _762
REMARK  308  A    between atoms: _762  and  _763
REMARK  309  A    between atoms: _766  and  _768
REMARK  310  A    between atoms: _768  and  _769
REMARK  311  A    between atoms: _768  and  _771
REMARK  312  A    between atoms: _771  and  _772
REMARK  313  A    between atoms: _773  and  _775
REMARK  314  A    between atoms: _775  and  _776
REMARK  315  A    between atoms: _775  and  _778
REMARK  316  A    between atoms: _781  and  _783
REMARK  317  A    between atoms: _783  and  _784
REMARK  318  A    between atoms: _783  and  _786
REMARK  319  A    between atoms: _786  and  _787
REMARK  320  A    between atoms: _787  and  _788
REMARK  321  A    between atoms: _791  and  _793
REMARK  322  A    between atoms: _793  and  _794
REMARK  323  A    between atoms: _793  and  _796
REMARK  324  A    between atoms: _796  and  _797
REMARK  325  A    between atoms: _807  and  _809
REMARK  326  A    between atoms: _809  and  _810
REMARK  327  A    between atoms: _809  and  _812
REMARK  328  A    between atoms: _812  and  _813
REMARK  329  A    between atoms: _816  and  _818
REMARK  330  A    between atoms: _818  and  _819
REMARK  331  A    between atoms: _818  and  _821
REMARK  332  A    between atoms: _821  and  _822
REMARK  333  A    between atoms: _822  and  _823
REMARK  334  A    between atoms: _823  and  _824
REMARK  335  A    between atoms: _833  and  _835
REMARK  336  A    between atoms: _835  and  _836
REMARK  337  A    between atoms: _835  and  _838
REMARK  338  A    between atoms: _838  and  _839
REMARK  339  A    between atoms: _844  and  _845
REMARK                            x       y       z     vdW  Elec       q    Type
REMARK                         _______ _______ _______ _____ _____    ______ ____
ROOT
ATOM      1  C   ARG A   1      56.847  55.868  10.302  0.00  0.00    +0.238 C 
ATOM      2  O   ARG A   1      56.978  55.619  11.502  0.00  0.00    -0.274 OA
ATOM      3  N   TYR A   2      56.151  55.083   9.478  0.00  0.00    -0.298 N 
ATOM      4  H   TYR A   2      56.063  55.338   8.474  0.00  0.00    +0.150 HD
ENDROOT
BRANCH   1   5
ATOM      5  CA  ARG A   1      57.497  57.117   9.692  0.00  0.00    +0.145 C 
BRANCH   5   6
ATOM      6  N   ARG A   1      58.055  56.846   8.366  0.00  0.00    -0.238 NA
ATOM      7  H   ARG A   1      57.649  57.329   7.539  0.00  0.00    +0.142 HD
ENDBRANCH   5   6
BRANCH   5   8
ATOM      8  CB  ARG A   1      56.463  58.238   9.599  0.00  0.00    +0.030 C 
BRANCH   8   9
ATOM      9  CG  ARG A   1      55.671  58.489  10.867  0.00  0.00    +0.045 C 
BRANCH   9  10
ATOM     10  CD  ARG A   1      54.565  59.500  10.565  0.00  0.00    +0.174 C 
BRANCH  10  11
ATOM     11  NE  ARG A   1      53.683  59.691  11.703  0.00  0.00    -0.265 N 
ATOM     12  CZ  ARG A   1      53.917  60.519  12.712  0.00  0.00    +0.342 C 
ATOM     13  NH2 ARG A   1      53.043  60.592  13.707  0.00  0.00    -0.292 N 
ATOM     14 HH21 ARG A   1      53.215  61.238  14.504  0.00  0.00    +0.255 HD
ATOM     15 HH22 ARG A   1      52.186  60.004  13.690  0.00  0.00    +0.255 HD
ATOM     16  NH1 ARG A   1      55.019  61.263  12.737  0.00  0.00    -0.292 N 
ATOM     17 HH11 ARG A   1      55.192  61.909  13.533  0.00  0.00    +0.255 HD
ATOM     18 HH12 ARG A   1      55.707  61.199  11.960  0.00  0.00    +0.255 HD
ATOM     19  HE  ARG A   1      52.803  59.137  11.728  0.00  0.00    +0.259 HD
ENDBRANCH  10  11
ENDBRANCH   9  10
ENDBRANCH   8   9
ENDBRANCH   5   8
ENDBRANCH   1   5
BRANCH   3  20
ATOM     20  CA  TYR A   2      55.509  53.862   9.978  0.00  0.00    +0.141 C 
BRANCH  20  21
ATOM     21  C   TYR A   2      56.585  52.879  10.402  0.00  0.00    +0.227 C 
ATOM     22  O   TYR A   2      56.449  52.222  11.430  0.00  0.00    -0.286 OA
ENDBRANCH  20  21
BRANCH  20  23
ATOM     23  CB  TYR A   2      54.610  53.213   8.914  0.00  0.00    +0.054 C 
BRANCH  23  24
ATOM     24  CG  TYR A   2      53.463  54.085   8.442  0.00  0.00    -0.020 A 
ATOM     25  CD2 TYR A   2      52.743  54.887   9.336  0.00  0.00    -0.001 A 
ATOM     26  CE2 TYR A   2      51.660  55.655   8.904  0.00  0.00    +0.036 A 
ATOM     27  CZ  TYR A   2      51.295  55.623   7.563  0.00  0.00    +0.134 A 
ATOM     28  CE1 TYR A   2      51.993  54.842   6.666  0.00  0.00    +0.036 A 
ATOM     29  CD1 TYR A   2      53.067  54.080   7.098  0.00  0.00    -0.001 A 
BRANCH  27  30
ATOM     30  OH  TYR A   2      50.234  56.372   7.113  0.00  0.00    -0.506 OA
ATOM     31  HH  TYR A   2      49.840  56.873   7.871  0.00  0.00    +0.292 HD
ENDBRANCH  27  30
ENDBRANCH  23  24
ENDBRANCH  20  23
ENDBRANCH   3  20
TORSDOF 11
REMARK  Name = ../refined-set-2016/1fzo/1fzo_pocket.pdb
REMARK  339 active torsions:
REMARK  status: ('A' for Active; 'I' for Inactive)
REMARK    1  A    between atoms: _1  and  _3
REMARK    2  A    between atoms: _3  and  _4
REMARK    3  A    between atoms: _3  and  _6
REMARK    4  A    between atoms: _6  and  _7
REMARK    5  A    between atoms: _10  and  _12
REMARK    6  A    between atoms: _12  and  _13
REMARK    7  A    between atoms: _12  and  _15
REMARK    8  A    between atoms: _15  and  _16
REMARK    9  A    between atoms: _16  and  _17
REMARK   10  A    between atoms: _17  and  _18
REMARK   11  A    between atoms: _27  and  _29
REMARK   12  A    between atoms: _29  and  _30
REMARK   13  A    between atoms: _29  and  _32
REMARK   14  A    between atoms: _32  and  _33
REMARK   15  A    between atoms: _38  and  _39
REMARK   16  A    between atoms: _41  and  _43
REMARK   17  A    between atoms: _43  and  _44
REMARK   18  A    between atoms: _43  and  _46
REMARK   19  A    between atoms: _46  and  _47
REMARK   20  A    between atoms: _53  and  _55
REMARK   21  A    between atoms: _55  and  _56
REMARK   22  A    between atoms: _55  and  _58
REMARK   23  A    between atoms: _61  and  _63
REMARK   24  A    between atoms: _63  and  _64
REMARK   25  A    between atoms: _63  and  _66
REMARK   26  A    between atoms: _66  and  _67
REMARK   27  A    between atoms: _70  and  _72
REMARK   28  A    between atoms: _72  and  _73
REMARK   29  A    between atoms: _72  and  _75
REMARK   30  A    between atoms: _75  and  _76
REMARK   31  A    between atoms: _82  and  _84
REMARK   32  A    between atoms: _84  and  _85
REMARK   33  A    between atoms: _84  and  _87
REMARK   34  A    between atoms: _87  and  _88
REMARK   35  A    between atoms: _91  and  _93
REMARK   36  A    between atoms: _93  and  _94
REMARK   37  A    between atoms: _93  and  _96
REMARK   38  A    between atoms: _96  and  _97
REMARK   39  A    between atoms: _99  and  _101
REMARK   40  A    between atoms: _101  and  _102
REMARK   41  A    between atoms: _101  and  _104
REMARK   42  A    between atoms: _107  and  _109
REMARK   43  A    between atoms: _109  and  _110
REMARK   44  A    between atoms: _112  and  _114
REMARK   45  A    between atoms: _114  and  _115
REMARK   46  A    between atoms: _114  and  _117
REMARK   47  A    between atoms: _120  and  _122
REMARK   48  A    between atoms: _122  and  _123
REMARK   49  A    between atoms: _122  and  _125
REMARK   50  A    between atoms: _125  and  _126
REMARK   51  A    between atoms: _132  and  _134
REMARK   52  A    between atoms: _134  and  _135
REMARK   53  A    between atoms: _134  and  _137
REMARK   54  A    between atoms: _140  and  _142
REMARK   55  A    between atoms: _142  and  _143
REMARK   56  A    between atoms: _142  and  _145
REMARK   57  A    between atoms: _145  and  _146
REMARK   58  A    between atoms: _151  and  _152
REMARK   59  A    between atoms: _154  and  _156
REMARK   60  A    between atoms: _156  and  _157
REMARK   61  A    between atoms: _156  and  _159
REMARK   62  A    between atoms: _159  and  _160
REMARK   63  A    between atoms: _160  and  _161
REMARK   64  A    between atoms: _163  and  _165
REMARK   65  A    between atoms: _165  and  _166
REMARK   66  A    between atoms: _165  and  _168
REMARK   67  A    between atoms: _168  and  _169
REMARK   68  A    between atoms: _169  and  _170
REMARK   69  A    between atoms: _173  and  _175
REMARK   70  A    between atoms: _175  and  _176
REMARK   71  A    between atoms: _175  and  _178
REMARK   72  A    between atoms: _178  and  _179
REMARK   73  A    between atoms: _179  and  _180
REMARK   74  A    between atoms: _183  and  _185
REMARK   75  A    between atoms: _185  and  _186
REMARK   76  A    between atoms: _185  and  _188
REMARK   77  A    between atoms: _188  and  _189
REMARK   78  A    between atoms: _194  and  _195
REMARK   79  A    between atoms: _197  and  _199
REMARK   80  A    between atoms: _199  and  _200
REMARK   81  A    between atoms: _199  and  _202
REMARK   82  A    between atoms: _202  and  _203
REMARK   83  A    between atoms: _213  and  _215
REMARK   84  A    between atoms: _215  and  _216
REMARK   85  A    between atoms: _215  and  _218
REMARK   86  A    between atoms: _218  and  _219
REMARK   87  A    between atoms: _219  and  _220
REMARK   88  A    between atoms: _223  and  _225
REMARK   89  A    between atoms: _225  and  _226
REMARK   90  A    between atoms: _225  and  _228
REMARK   91  A    between atoms: _228  and  _229
REMARK   92  A    between atoms: _229  and  _230
REMARK   93  A    between atoms: _230  and  _231
REMARK   94  A    between atoms: _240  and  _242
REMARK   95  A    between atoms: _242  and  _243
REMARK   96  A    between atoms: _242  and  _245
REMARK   97  A    between atoms: _245  and  _246
REMARK   98  A    between atoms: _246  and  _247
REMARK   99  A    between atoms: _250  and  _252
REMARK  100  A    between atoms: _252  and  _253
REMARK  101  A    between atoms: _252  and  _255
REMARK  102  A    between atoms: _255  and  _256
REMARK  103  A    between atoms: _259  and  _261
REMARK  104  A    between atoms: _261  and  _262
REMARK  105  A    between atoms: _261  and  _264
REMARK  106  A    between atoms: _264  and  _265
REMARK  107  A    between atoms: _265  and  _266
REMARK  108  A    between atoms: _271  and  _273
REMARK  109  A    between atoms: _273  and  _274
REMARK  110  A    between atoms: _273  and  _276
REMARK  111  A    between atoms: _276  and  _277
REMARK  112  A    between atoms: _277  and  _278
REMARK  113  A    between atoms: _278  and  _279
REMARK  114  A    between atoms: _279  and  _280
REMARK  115  A    between atoms: _284  and  _286
REMARK  116  A    between atoms: _286  and  _287
REMARK  117  A    between atoms: _290  and  _292
REMARK  118  A    between atoms: _292  and  _293
REMARK  119  A    between atoms: _295  and  _297
REMARK  120  A    between atoms: _297  and  _298
REMARK  121  A    between atoms: _297  and  _300
REMARK  122  A    between atoms: _300  and  _301
REMARK  123  A    between atoms: _306  and  _308
REMARK  124  A    between atoms: _308  and  _309
REMARK  125  A    between atoms: _308  and  _311
REMARK  126  A    between atoms: _311  and  _312
REMARK  127  A    between atoms: _312  and  _313
REMARK  128  A    between atoms: _316  and  _318
REMARK  129  A    between atoms: _318  and  _319
REMARK  130  A    between atoms: _318  and  _321
REMARK  131  A    between atoms: _321  and  _322
REMARK  132  A    between atoms: _322  and  _323
REMARK  133  A    between atoms: _328  and  _330
REMARK  134  A    between atoms: _330  and  _331
REMARK  135  A    between atoms: _330  and  _333
REMARK  136  A    between atoms: _333  and  _334
REMARK  137  A    between atoms: _336  and  _338
REMARK  138  A    between atoms: _338  and  _339
REMARK  139  A    between atoms: _338  and  _341
REMARK  140  A    between atoms: _341  and  _342
REMARK  141  A    between atoms: _348  and  _350
REMARK  142  A    between atoms: _350  and  _351
REMARK  143  A    between atoms: _350  and  _353
REMARK  144  A    between atoms: _356  and  _358
REMARK  145  A    between atoms: _358  and  _359
REMARK  146  A    between atoms: _358  and  _361
REMARK  147  A    between atoms: _361  and  _362
REMARK  148  A    between atoms: _365  and  _367
REMARK  149  A    between atoms: _367  and  _368
REMARK  150  A    between atoms: _367  and  _370
REMARK  151  A    between atoms: _370  and  _371
REMARK  152  A    between atoms: _374  and  _376
REMARK  153  A    between atoms: _376  and  _377
REMARK  154  A    between atoms: _376  and  _379
REMARK  155  A    between atoms: _379  and  _380
REMARK  156  A    between atoms: _383  and  _385
REMARK  157  A    between atoms: _385  and  _386
REMARK  158  A    between atoms: _385  and  _388
REMARK  159  A    between atoms: _388  and  _389
REMARK  160  A    between atoms: _392  and  _394
REMARK  161  A    between atoms: _394  and  _395
REMARK  162  A    between atoms: _394  and  _397
REMARK  163  A    between atoms: _397  and  _398
REMARK  164  A    between atoms: _403  and  _404
REMARK  165  A    between atoms: _406  and  _408
REMARK  166  A    between atoms: _408  and  _409
REMARK  167  A    between atoms: _408  and  _411
REMARK  168  A    between atoms: _411  and  _412
REMARK  169  A    between atoms: _417  and  _418
REMARK  170  A    between atoms: _420  and  _422
REMARK  171  A    between atoms: _422  and  _423
REMARK  172  A    between atoms: _422  and  _425
REMARK  173  A    between atoms: _425  and  _426
REMARK  174  A    between atoms: _429  and  _431
REMARK  175  A    between atoms: _431  and  _432
REMARK  176  A    between atoms: _431  and  _434
REMARK  177  A    between atoms: _434  and  _435
REMARK  178  A    between atoms: _435  and  _436
REMARK  179  A    between atoms: _441  and  _443
REMARK  180  A    between atoms: _443  and  _444
REMARK  181  A    between atoms: _443  and  _446
REMARK  182  A    between atoms: _449  and  _451
REMARK  183  A    between atoms: _451  and  _452
REMARK  184  A    between atoms: _451  and  _454
REMARK  185  A    between atoms: _454  and  _455
REMARK  186  A    between atoms: _458  and  _460
REMARK  187  A    between atoms: _460  and  _461
REMARK  188  A    between atoms: _460  and  _463
REMARK  189  A    between atoms: _463  and  _464
REMARK  190  A    between atoms: _466  and  _468
REMARK  191  A    between atoms: _468  and  _469
REMARK  192  A    between atoms: _471  and  _473
REMARK  193  A    between atoms: _473  and  _474
REMARK  194  A    between atoms: _473  and  _476
REMARK  195  A    between atoms: _476  and  _477
REMARK  196  A    between atoms: _477  and  _772
REMARK  197  A    between atoms: _478  and  _480
REMARK  198  A    between atoms: _480  and  _481
REMARK  199  A    between atoms: _480  and  _483
REMARK  200  A    between atoms: _483  and  _484
REMARK  201  A    between atoms: _489  and  _490
REMARK  202  A    between atoms: _492  and  _494
REMARK  203  A    between atoms: _494  and  _495
REMARK  204  A    between atoms: _494  and  _497
REMARK  205  A    between atoms: _497  and  _498
REMARK  206  A    between atoms: _498  and  _499
REMARK  207  A    between atoms: _504  and  _506
REMARK  208  A    between atoms: _506  and  _507
REMARK  209  A    between atoms: _506  and  _509
REMARK  210  A    between atoms: _509  and  _510
REMARK  211  A    between atoms: _510  and  _511
REMARK  212  A    between atoms: _516  and  _518
REMARK  213  A    between atoms: _518  and  _519
REMARK  214  A    between atoms: _518  and  _521
REMARK  215  A    between atoms: _521  and  _522
REMARK  216  A    between atoms: _527  and  _528
REMARK  217  A    between atoms: _530  and  _532
REMARK  218  A    between atoms: _532  and  _533
REMARK  219  A    between atoms: _536  and  _538
REMARK  220  A    between atoms: _538  and  _539
REMARK  221  A    between atoms: _538  and  _541
REMARK  222  A    between atoms: _541  and  _542
REMARK  223  A    between atoms: _547  and  _548
REMARK  224  A    between atoms: _550  and  _552
REMARK  225  A    between atoms: _552  and  _553
REMARK  226  A    between atoms: _552  and  _555
REMARK  227  A    between atoms: _555  and  _556
REMARK  228  A    between atoms: _561  and  _562
REMARK  229  A    between atoms: _564  and  _566
REMARK  230  A    between atoms: _566  and  _567
REMARK  231  A    between atoms: _566  and  _569
REMARK  232  A    between atoms: _569  and  _570
REMARK  233  A    between atoms: _573  and  _575
REMARK  234  A    between atoms: _575  and  _576
REMARK  235  A    between atoms: _575  and  _578
REMARK  236  A    between atoms: _578  and  _579
REMARK  237  A    between atoms: _589  and  _591
REMARK  238  A    between atoms: _591  and  _592
REMARK  239  A    between atoms: _595  and  _597
REMARK  240  A    between atoms: _597  and  _598
REMARK  241  A    between atoms: _601  and  _603
REMARK  242  A    between atoms: _603  and  _604
REMARK  243  A    between atoms: _603  and  _606
REMARK  244  A    between atoms: _606  and  _607
REMARK  245  A    between atoms: _610  and  _612
REMARK  246  A    between atoms: _612  and  _613
REMARK  247  A    between atoms: _612  and  _615
REMARK  248  A    between atoms: _615  and  _616
REMARK  249  A    between atoms: _619  and  _621
REMARK  250  A    between atoms: _621  and  _622
REMARK  251  A    between atoms: _621  and  _624
REMARK  252  A    between atoms: _624  and  _625
REMARK  253  A    between atoms: _628  and  _630
REMARK  254  A    between atoms: _630  and  _631
REMARK  255  A    between atoms: _630  and  _633
REMARK  256  A    between atoms: _633  and  _634
REMARK  257  A    between atoms: _634  and  _635
REMARK  258  A    between atoms: _635  and  _636
REMARK  259  A    between atoms: _636  and  _637
REMARK  260  A    between atoms: _641  and  _643
REMARK  261  A    between atoms: _643  and  _644
REMARK  262  A    between atoms: _643  and  _646
REMARK  263  A    between atoms: _646  and  _647
REMARK  264  A    between atoms: _652  and  _654
REMARK  265  A    between atoms: _654  and  _655
REMARK  266  A    between atoms: _654  and  _657
REMARK  267  A    between atoms: _657  and  _658
REMARK  268  A    between atoms: _658  and  _659
REMARK  269  A    between atoms: _659  and  _660
REMARK  270  A    between atoms: _660  and  _661
REMARK  271  A    between atoms: _665  and  _667
REMARK  272  A    between atoms: _667  and  _668
REMARK  273  A    between atoms: _667  and  _670
REMARK  274  A    between atoms: _670  and  _671
REMARK  275  A    between atoms: _681  and  _683
REMARK  276  A    between atoms: _683  and  _684
REMARK  277  A    between atoms: _687  and  _689
REMARK  278  A    between atoms: _689  and  _690
REMARK  279  A    between atoms: _692  and  _694
REMARK  280  A    between atoms: _694  and  _695
REMARK  281  A    between atoms: _694  and  _697
REMARK  282  A    between atoms: _697  and  _698
REMARK  283  A    between atoms: _698  and  _699
REMARK  284  A    between atoms: _702  and  _704
REMARK  285  A    between atoms: _704  and  _705
REMARK  286  A    between atoms: _708  and  _710
REMARK  287  A    between atoms: _710  and  _711
REMARK  288  A    between atoms: _710  and  _713
REMARK  289  A    between atoms: _713  and  _714
REMARK  290  A    between atoms: _714  and  _715
REMARK  291  A    between atoms: _715  and  _716
REMARK  292  A    between atoms: _725  and  _727
REMARK  293  A    between atoms: _727  and  _728
REMARK  294  A    between atoms: _727  and  _730
REMARK  295  A    between atoms: _730  and  _731
REMARK  296  A    between atoms: _734  and  _736
REMARK  297  A    between atoms: _736  and  _737
REMARK  298  A    between atoms: _736  and  _739
REMARK  299  A    between atoms: _739  and  _740
REMARK  300  A    between atoms: _745  and  _746
REMARK  301  A    between atoms: _748  and  _750
REMARK  302  A    between atoms: _750  and  _751
REMARK  303  A    between atoms: _750  and  _753
REMARK  304  A    between atoms: _753  and  _754
REMARK  305  A    between atoms: _757  and  _759
REMARK  306  A    between atoms: _759  and  _760
REMARK  307  A    between atoms: _759  and  _762
REMARK  308  A    between atoms: _762  and  _763
REMARK  309  A    between atoms: _766  and  _768
REMARK  310  A    between atoms: _768  and  _769
REMARK  311  A    between atoms: _768  and  _771
REMARK  312  A    between atoms: _771  and  _772
REMARK  313  A    between atoms: _773  and  _775
REMARK  314  A    between atoms: _775  and  _776
REMARK  315  A    between atoms: _775  and  _778
REMARK  316  A    between atoms: _781  and  _783
REMARK  317  A    between atoms: _783  and  _784
REMARK  318  A    between atoms: _783  and  _786
REMARK  319  A    between atoms: _786  and  _787
REMARK  320  A    between atoms: _787  and  _788
REMARK  321  A    between atoms: _791  and  _793
REMARK  322  A    between atoms: _793  and  _794
REMARK  323  A    between atoms: _793  and  _796
REMARK  324  A    between atoms: _796  and  _797
REMARK  325  A    between atoms: _807  and  _809
REMARK  326  A    between atoms: _809  and  _810
REMARK  327  A    between atoms: _809  and  _812
REMARK  328  A    between atoms: _812  and  _813
REMARK  329  A    between atoms: _816  and  _818
REMARK  330  A    between atoms: _818  and  _819
REMARK  331  A    between atoms: _818  and  _821
REMARK  332  A    between atoms: _821  and  _822
REMARK  333  A    between atoms: _822  and  _823
REMARK  334  A    between atoms: _823  and  _824
REMARK  335  A    between atoms: _833  and  _835
REMARK  336  A    between atoms: _835  and  _836
REMARK  337  A    between atoms: _835  and  _838
REMARK  338  A    between atoms: _838  and  _839
REMARK  339  A    between atoms: _844  and  _845
REMARK                            x       y       z     vdW  Elec       q    Type
REMARK                         _______ _______ _______ _____ _____    ______ ____
ROOT
ATOM      1  O   HOH     1      45.143  52.057  -4.241  0.00  0.00    +0.000 OA
ENDROOT
TORSDOF 0
REMARK  Name = ../refined-set-2016/1fzo/1fzo_pocket.pdb
REMARK  339 active torsions:
REMARK  status: ('A' for Active; 'I' for Inactive)
REMARK    1  A    between atoms: _1  and  _3
REMARK    2  A    between atoms: _3  and  _4
REMARK    3  A    between atoms: _3  and  _6
REMARK    4  A    between atoms: _6  and  _7
REMARK    5  A    between atoms: _10  and  _12
REMARK    6  A    between atoms: _12  and  _13
REMARK    7  A    between atoms: _12  and  _15
REMARK    8  A    between atoms: _15  and  _16
REMARK    9  A    between atoms: _16  and  _17
REMARK   10  A    between atoms: _17  and  _18
REMARK   11  A    between atoms: _27  and  _29
REMARK   12  A    between atoms: _29  and  _30
REMARK   13  A    between atoms: _29  and  _32
REMARK   14  A    between atoms: _32  and  _33
REMARK   15  A    between atoms: _38  and  _39
REMARK   16  A    between atoms: _41  and  _43
REMARK   17  A    between atoms: _43  and  _44
REMARK   18  A    between atoms: _43  and  _46
REMARK   19  A    between atoms: _46  and  _47
REMARK   20  A    between atoms: _53  and  _55
REMARK   21  A    between atoms: _55  and  _56
REMARK   22  A    between atoms: _55  and  _58
REMARK   23  A    between atoms: _61  and  _63
REMARK   24  A    between atoms: _63  and  _64
REMARK   25  A    between atoms: _63  and  _66
REMARK   26  A    between atoms: _66  and  _67
REMARK   27  A    between atoms: _70  and  _72
REMARK   28  A    between atoms: _72  and  _73
REMARK   29  A    between atoms: _72  and  _75
REMARK   30  A    between atoms: _75  and  _76
REMARK   31  A    between atoms: _82  and  _84
REMARK   32  A    between atoms: _84  and  _85
REMARK   33  A    between atoms: _84  and  _87
REMARK   34  A    between atoms: _87  and  _88
REMARK   35  A    between atoms: _91  and  _93
REMARK   36  A    between atoms: _93  and  _94
REMARK   37  A    between atoms: _93  and  _96
REMARK   38  A    between atoms: _96  and  _97
REMARK   39  A    between atoms: _99  and  _101
REMARK   40  A    between atoms: _101  and  _102
REMARK   41  A    between atoms: _101  and  _104
REMARK   42  A    between atoms: _107  and  _109
REMARK   43  A    between atoms: _109  and  _110
REMARK   44  A    between atoms: _112  and  _114
REMARK   45  A    between atoms: _114  and  _115
REMARK   46  A    between atoms: _114  and  _117
REMARK   47  A    between atoms: _120  and  _122
REMARK   48  A    between atoms: _122  and  _123
REMARK   49  A    between atoms: _122  and  _125
REMARK   50  A    between atoms: _125  and  _126
REMARK   51  A    between atoms: _132  and  _134
REMARK   52  A    between atoms: _134  and  _135
REMARK   53  A    between atoms: _134  and  _137
REMARK   54  A    between atoms: _140  and  _142
REMARK   55  A    between atoms: _142  and  _143
REMARK   56  A    between atoms: _142  and  _145
REMARK   57  A    between atoms: _145  and  _146
REMARK   58  A    between atoms: _151  and  _152
REMARK   59  A    between atoms: _154  and  _156
REMARK   60  A    between atoms: _156  and  _157
REMARK   61  A    between atoms: _156  and  _159
REMARK   62  A    between atoms: _159  and  _160
REMARK   63  A    between atoms: _160  and  _161
REMARK   64  A    between atoms: _163  and  _165
REMARK   65  A    between atoms: _165  and  _166
REMARK   66  A    between atoms: _165  and  _168
REMARK   67  A    between atoms: _168  and  _169
REMARK   68  A    between atoms: _169  and  _170
REMARK   69  A    between atoms: _173  and  _175
REMARK   70  A    between atoms: _175  and  _176
REMARK   71  A    between atoms: _175  and  _178
REMARK   72  A    between atoms: _178  and  _179
REMARK   73  A    between atoms: _179  and  _180
REMARK   74  A    between atoms: _183  and  _185
REMARK   75  A    between atoms: _185  and  _186
REMARK   76  A    between atoms: _185  and  _188
REMARK   77  A    between atoms: _188  and  _189
REMARK   78  A    between atoms: _194  and  _195
REMARK   79  A    between atoms: _197  and  _199
REMARK   80  A    between atoms: _199  and  _200
REMARK   81  A    between atoms: _199  and  _202
REMARK   82  A    between atoms: _202  and  _203
REMARK   83  A    between atoms: _213  and  _215
REMARK   84  A    between atoms: _215  and  _216
REMARK   85  A    between atoms: _215  and  _218
REMARK   86  A    between atoms: _218  and  _219
REMARK   87  A    between atoms: _219  and  _220
REMARK   88  A    between atoms: _223  and  _225
REMARK   89  A    between atoms: _225  and  _226
REMARK   90  A    between atoms: _225  and  _228
REMARK   91  A    between atoms: _228  and  _229
REMARK   92  A    between atoms: _229  and  _230
REMARK   93  A    between atoms: _230  and  _231
REMARK   94  A    between atoms: _240  and  _242
REMARK   95  A    between atoms: _242  and  _243
REMARK   96  A    between atoms: _242  and  _245
REMARK   97  A    between atoms: _245  and  _246
REMARK   98  A    between atoms: _246  and  _247
REMARK   99  A    between atoms: _250  and  _252
REMARK  100  A    between atoms: _252  and  _253
REMARK  101  A    between atoms: _252  and  _255
REMARK  102  A    between atoms: _255  and  _256
REMARK  103  A    between atoms: _259  and  _261
REMARK  104  A    between atoms: _261  and  _262
REMARK  105  A    between atoms: _261  and  _264
REMARK  106  A    between atoms: _264  and  _265
REMARK  107  A    between atoms: _265  and  _266
REMARK  108  A    between atoms: _271  and  _273
REMARK  109  A    between atoms: _273  and  _274
REMARK  110  A    between atoms: _273  and  _276
REMARK  111  A    between atoms: _276  and  _277
REMARK  112  A    between atoms: _277  and  _278
REMARK  113  A    between atoms: _278  and  _279
REMARK  114  A    between atoms: _279  and  _280
REMARK  115  A    between atoms: _284  and  _286
REMARK  116  A    between atoms: _286  and  _287
REMARK  117  A    between atoms: _290  and  _292
REMARK  118  A    between atoms: _292  and  _293
REMARK  119  A    between atoms: _295  and  _297
REMARK  120  A    between atoms: _297  and  _298
REMARK  121  A    between atoms: _297  and  _300
REMARK  122  A    between atoms: _300  and  _301
REMARK  123  A    between atoms: _306  and  _308
REMARK  124  A    between atoms: _308  and  _309
REMARK  125  A    between atoms: _308  and  _311
REMARK  126  A    between atoms: _311  and  _312
REMARK  127  A    between atoms: _312  and  _313
REMARK  128  A    between atoms: _316  and  _318
REMARK  129  A    between atoms: _318  and  _319
REMARK  130  A    between atoms: _318  and  _321
REMARK  131  A    between atoms: _321  and  _322
REMARK  132  A    between atoms: _322  and  _323
REMARK  133  A    between atoms: _328  and  _330
REMARK  134  A    between atoms: _330  and  _331
REMARK  135  A    between atoms: _330  and  _333
REMARK  136  A    between atoms: _333  and  _334
REMARK  137  A    between atoms: _336  and  _338
REMARK  138  A    between atoms: _338  and  _339
REMARK  139  A    between atoms: _338  and  _341
REMARK  140  A    between atoms: _341  and  _342
REMARK  141  A    between atoms: _348  and  _350
REMARK  142  A    between atoms: _350  and  _351
REMARK  143  A    between atoms: _350  and  _353
REMARK  144  A    between atoms: _356  and  _358
REMARK  145  A    between atoms: _358  and  _359
REMARK  146  A    between atoms: _358  and  _361
REMARK  147  A    between atoms: _361  and  _362
REMARK  148  A    between atoms: _365  and  _367
REMARK  149  A    between atoms: _367  and  _368
REMARK  150  A    between atoms: _367  and  _370
REMARK  151  A    between atoms: _370  and  _371
REMARK  152  A    between atoms: _374  and  _376
REMARK  153  A    between atoms: _376  and  _377
REMARK  154  A    between atoms: _376  and  _379
REMARK  155  A    between atoms: _379  and  _380
REMARK  156  A    between atoms: _383  and  _385
REMARK  157  A    between atoms: _385  and  _386
REMARK  158  A    between atoms: _385  and  _388
REMARK  159  A    between atoms: _388  and  _389
REMARK  160  A    between atoms: _392  and  _394
REMARK  161  A    between atoms: _394  and  _395
REMARK  162  A    between atoms: _394  and  _397
REMARK  163  A    between atoms: _397  and  _398
REMARK  164  A    between atoms: _403  and  _404
REMARK  165  A    between atoms: _406  and  _408
REMARK  166  A    between atoms: _408  and  _409
REMARK  167  A    between atoms: _408  and  _411
REMARK  168  A    between atoms: _411  and  _412
REMARK  169  A    between atoms: _417  and  _418
REMARK  170  A    between atoms: _420  and  _422
REMARK  171  A    between atoms: _422  and  _423
REMARK  172  A    between atoms: _422  and  _425
REMARK  173  A    between atoms: _425  and  _426
REMARK  174  A    between atoms: _429  and  _431
REMARK  175  A    between atoms: _431  and  _432
REMARK  176  A    between atoms: _431  and  _434
REMARK  177  A    between atoms: _434  and  _435
REMARK  178  A    between atoms: _435  and  _436
REMARK  179  A    between atoms: _441  and  _443
REMARK  180  A    between atoms: _443  and  _444
REMARK  181  A    between atoms: _443  and  _446
REMARK  182  A    between atoms: _449  and  _451
REMARK  183  A    between atoms: _451  and  _452
REMARK  184  A    between atoms: _451  and  _454
REMARK  185  A    between atoms: _454  and  _455
REMARK  186  A    between atoms: _458  and  _460
REMARK  187  A    between atoms: _460  and  _461
REMARK  188  A    between atoms: _460  and  _463
REMARK  189  A    between atoms: _463  and  _464
REMARK  190  A    between atoms: _466  and  _468
REMARK  191  A    between atoms: _468  and  _469
REMARK  192  A    between atoms: _471  and  _473
REMARK  193  A    between atoms: _473  and  _474
REMARK  194  A    between atoms: _473  and  _476
REMARK  195  A    between atoms: _476  and  _477
REMARK  196  A    between atoms: _477  and  _772
REMARK  197  A    between atoms: _478  and  _480
REMARK  198  A    between atoms: _480  and  _481
REMARK  199  A    between atoms: _480  and  _483
REMARK  200  A    between atoms: _483  and  _484
REMARK  201  A    between atoms: _489  and  _490
REMARK  202  A    between atoms: _492  and  _494
REMARK  203  A    between atoms: _494  and  _495
REMARK  204  A    between atoms: _494  and  _497
REMARK  205  A    between atoms: _497  and  _498
REMARK  206  A    between atoms: _498  and  _499
REMARK  207  A    between atoms: _504  and  _506
REMARK  208  A    between atoms: _506  and  _507
REMARK  209  A    between atoms: _506  and  _509
REMARK  210  A    between atoms: _509  and  _510
REMARK  211  A    between atoms: _510  and  _511
REMARK  212  A    between atoms: _516  and  _518
REMARK  213  A    between atoms: _518  and  _519
REMARK  214  A    between atoms: _518  and  _521
REMARK  215  A    between atoms: _521  and  _522
REMARK  216  A    between atoms: _527  and  _528
REMARK  217  A    between atoms: _530  and  _532
REMARK  218  A    between atoms: _532  and  _533
REMARK  219  A    between atoms: _536  and  _538
REMARK  220  A    between atoms: _538  and  _539
REMARK  221  A    between atoms: _538  and  _541
REMARK  222  A    between atoms: _541  and  _542
REMARK  223  A    between atoms: _547  and  _548
REMARK  224  A    between atoms: _550  and  _552
REMARK  225  A    between atoms: _552  and  _553
REMARK  226  A    between atoms: _552  and  _555
REMARK  227  A    between atoms: _555  and  _556
REMARK  228  A    between atoms: _561  and  _562
REMARK  229  A    between atoms: _564  and  _566
REMARK  230  A    between atoms: _566  and  _567
REMARK  231  A    between atoms: _566  and  _569
REMARK  232  A    between atoms: _569  and  _570
REMARK  233  A    between atoms: _573  and  _575
REMARK  234  A    between atoms: _575  and  _576
REMARK  235  A    between atoms: _575  and  _578
REMARK  236  A    between atoms: _578  and  _579
REMARK  237  A    between atoms: _589  and  _591
REMARK  238  A    between atoms: _591  and  _592
REMARK  239  A    between atoms: _595  and  _597
REMARK  240  A    between atoms: _597  and  _598
REMARK  241  A    between atoms: _601  and  _603
REMARK  242  A    between atoms: _603  and  _604
REMARK  243  A    between atoms: _603  and  _606
REMARK  244  A    between atoms: _606  and  _607
REMARK  245  A    between atoms: _610  and  _612
REMARK  246  A    between atoms: _612  and  _613
REMARK  247  A    between atoms: _612  and  _615
REMARK  248  A    between atoms: _615  and  _616
REMARK  249  A    between atoms: _619  and  _621
REMARK  250  A    between atoms: _621  and  _622
REMARK  251  A    between atoms: _621  and  _624
REMARK  252  A    between atoms: _624  and  _625
REMARK  253  A    between atoms: _628  and  _630
REMARK  254  A    between atoms: _630  and  _631
REMARK  255  A    between atoms: _630  and  _633
REMARK  256  A    between atoms: _633  and  _634
REMARK  257  A    between atoms: _634  and  _635
REMARK  258  A    between atoms: _635  and  _636
REMARK  259  A    between atoms: _636  and  _637
REMARK  260  A    between atoms: _641  and  _643
REMARK  261  A    between atoms: _643  and  _644
REMARK  262  A    between atoms: _643  and  _646
REMARK  263  A    between atoms: _646  and  _647
REMARK  264  A    between atoms: _652  and  _654
REMARK  265  A    between atoms: _654  and  _655
REMARK  266  A    between atoms: _654  and  _657
REMARK  267  A    between atoms: _657  and  _658
REMARK  268  A    between atoms: _658  and  _659
REMARK  269  A    between atoms: _659  and  _660
REMARK  270  A    between atoms: _660  and  _661
REMARK  271  A    between atoms: _665  and  _667
REMARK  272  A    between atoms: _667  and  _668
REMARK  273  A    between atoms: _667  and  _670
REMARK  274  A    between atoms: _670  and  _671
REMARK  275  A    between atoms: _681  and  _683
REMARK  276  A    between atoms: _683  and  _684
REMARK  277  A    between atoms: _687  and  _689
REMARK  278  A    between atoms: _689  and  _690
REMARK  279  A    between atoms: _692  and  _694
REMARK  280  A    between atoms: _694  and  _695
REMARK  281  A    between atoms: _694  and  _697
REMARK  282  A    between atoms: _697  and  _698
REMARK  283  A    between atoms: _698  and  _699
REMARK  284  A    between atoms: _702  and  _704
REMARK  285  A    between atoms: _704  and  _705
REMARK  286  A    between atoms: _708  and  _710
REMARK  287  A    between atoms: _710  and  _711
REMARK  288  A    between atoms: _710  and  _713
REMARK  289  A    between atoms: _713  and  _714
REMARK  290  A    between atoms: _714  and  _715
REMARK  291  A    between atoms: _715  and  _716
REMARK  292  A    between atoms: _725  and  _727
REMARK  293  A    between atoms: _727  and  _728
REMARK  294  A    between atoms: _727  and  _730
REMARK  295  A    between atoms: _730  and  _731
REMARK  296  A    between atoms: _734  and  _736
REMARK  297  A    between atoms: _736  and  _737
REMARK  298  A    between atoms: _736  and  _739
REMARK  299  A    between atoms: _739  and  _740
REMARK  300  A    between atoms: _745  and  _746
REMARK  301  A    between atoms: _748  and  _750
REMARK  302  A    between atoms: _750  and  _751
REMARK  303  A    between atoms: _750  and  _753
REMARK  304  A    between atoms: _753  and  _754
REMARK  305  A    between atoms: _757  and  _759
REMARK  306  A    between atoms: _759  and  _760
REMARK  307  A    between atoms: _759  and  _762
REMARK  308  A    between atoms: _762  and  _763
REMARK  309  A    between atoms: _766  and  _768
REMARK  310  A    between atoms: _768  and  _769
REMARK  311  A    between atoms: _768  and  _771
REMARK  312  A    between atoms: _771  and  _772
REMARK  313  A    between atoms: _773  and  _775
REMARK  314  A    between atoms: _775  and  _776
REMARK  315  A    between atoms: _775  and  _778
REMARK  316  A    between atoms: _781  and  _783
REMARK  317  A    between atoms: _783  and  _784
REMARK  318  A    between atoms: _783  and  _786
REMARK  319  A    between atoms: _786  and  _787
REMARK  320  A    between atoms: _787  and  _788
REMARK  321  A    between atoms: _791  and  _793
REMARK  322  A    between atoms: _793  and  _794
REMARK  323  A    between atoms: _793  and  _796
REMARK  324  A    between atoms: _796  and  _797
REMARK  325  A    between atoms: _807  and  _809
REMARK  326  A    between atoms: _809  and  _810
REMARK  327  A    between atoms: _809  and  _812
REMARK  328  A    between atoms: _812  and  _813
REMARK  329  A    between atoms: _816  and  _818
REMARK  330  A    between atoms: _818  and  _819
REMARK  331  A    between atoms: _818  and  _821
REMARK  332  A    between atoms: _821  and  _822
REMARK  333  A    between atoms: _822  and  _823
REMARK  334  A    between atoms: _823  and  _824
REMARK  335  A    between atoms: _833  and  _835
REMARK  336  A    between atoms: _835  and  _836
REMARK  337  A    between atoms: _835  and  _838
REMARK  338  A    between atoms: _838  and  _839
REMARK  339  A    between atoms: _844  and  _845
REMARK                            x       y       z     vdW  Elec       q    Type
REMARK                         _______ _______ _______ _____ _____    ______ ____
ROOT
ATOM      1  O   HOH     1      41.142  63.219 -14.519  0.00  0.00    +0.000 OA
ENDROOT
TORSDOF 0
REMARK  Name = ../refined-set-2016/1fzo/1fzo_pocket.pdb
REMARK  339 active torsions:
REMARK  status: ('A' for Active; 'I' for Inactive)
REMARK    1  A    between atoms: _1  and  _3
REMARK    2  A    between atoms: _3  and  _4
REMARK    3  A    between atoms: _3  and  _6
REMARK    4  A    between atoms: _6  and  _7
REMARK    5  A    between atoms: _10  and  _12
REMARK    6  A    between atoms: _12  and  _13
REMARK    7  A    between atoms: _12  and  _15
REMARK    8  A    between atoms: _15  and  _16
REMARK    9  A    between atoms: _16  and  _17
REMARK   10  A    between atoms: _17  and  _18
REMARK   11  A    between atoms: _27  and  _29
REMARK   12  A    between atoms: _29  and  _30
REMARK   13  A    between atoms: _29  and  _32
REMARK   14  A    between atoms: _32  and  _33
REMARK   15  A    between atoms: _38  and  _39
REMARK   16  A    between atoms: _41  and  _43
REMARK   17  A    between atoms: _43  and  _44
REMARK   18  A    between atoms: _43  and  _46
REMARK   19  A    between atoms: _46  and  _47
REMARK   20  A    between atoms: _53  and  _55
REMARK   21  A    between atoms: _55  and  _56
REMARK   22  A    between atoms: _55  and  _58
REMARK   23  A    between atoms: _61  and  _63
REMARK   24  A    between atoms: _63  and  _64
REMARK   25  A    between atoms: _63  and  _66
REMARK   26  A    between atoms: _66  and  _67
REMARK   27  A    between atoms: _70  and  _72
REMARK   28  A    between atoms: _72  and  _73
REMARK   29  A    between atoms: _72  and  _75
REMARK   30  A    between atoms: _75  and  _76
REMARK   31  A    between atoms: _82  and  _84
REMARK   32  A    between atoms: _84  and  _85
REMARK   33  A    between atoms: _84  and  _87
REMARK   34  A    between atoms: _87  and  _88
REMARK   35  A    between atoms: _91  and  _93
REMARK   36  A    between atoms: _93  and  _94
REMARK   37  A    between atoms: _93  and  _96
REMARK   38  A    between atoms: _96  and  _97
REMARK   39  A    between atoms: _99  and  _101
REMARK   40  A    between atoms: _101  and  _102
REMARK   41  A    between atoms: _101  and  _104
REMARK   42  A    between atoms: _107  and  _109
REMARK   43  A    between atoms: _109  and  _110
REMARK   44  A    between atoms: _112  and  _114
REMARK   45  A    between atoms: _114  and  _115
REMARK   46  A    between atoms: _114  and  _117
REMARK   47  A    between atoms: _120  and  _122
REMARK   48  A    between atoms: _122  and  _123
REMARK   49  A    between atoms: _122  and  _125
REMARK   50  A    between atoms: _125  and  _126
REMARK   51  A    between atoms: _132  and  _134
REMARK   52  A    between atoms: _134  and  _135
REMARK   53  A    between atoms: _134  and  _137
REMARK   54  A    between atoms: _140  and  _142
REMARK   55  A    between atoms: _142  and  _143
REMARK   56  A    between atoms: _142  and  _145
REMARK   57  A    between atoms: _145  and  _146
REMARK   58  A    between atoms: _151  and  _152
REMARK   59  A    between atoms: _154  and  _156
REMARK   60  A    between atoms: _156  and  _157
REMARK   61  A    between atoms: _156  and  _159
REMARK   62  A    between atoms: _159  and  _160
REMARK   63  A    between atoms: _160  and  _161
REMARK   64  A    between atoms: _163  and  _165
REMARK   65  A    between atoms: _165  and  _166
REMARK   66  A    between atoms: _165  and  _168
REMARK   67  A    between atoms: _168  and  _169
REMARK   68  A    between atoms: _169  and  _170
REMARK   69  A    between atoms: _173  and  _175
REMARK   70  A    between atoms: _175  and  _176
REMARK   71  A    between atoms: _175  and  _178
REMARK   72  A    between atoms: _178  and  _179
REMARK   73  A    between atoms: _179  and  _180
REMARK   74  A    between atoms: _183  and  _185
REMARK   75  A    between atoms: _185  and  _186
REMARK   76  A    between atoms: _185  and  _188
REMARK   77  A    between atoms: _188  and  _189
REMARK   78  A    between atoms: _194  and  _195
REMARK   79  A    between atoms: _197  and  _199
REMARK   80  A    between atoms: _199  and  _200
REMARK   81  A    between atoms: _199  and  _202
REMARK   82  A    between atoms: _202  and  _203
REMARK   83  A    between atoms: _213  and  _215
REMARK   84  A    between atoms: _215  and  _216
REMARK   85  A    between atoms: _215  and  _218
REMARK   86  A    between atoms: _218  and  _219
REMARK   87  A    between atoms: _219  and  _220
REMARK   88  A    between atoms: _223  and  _225
REMARK   89  A    between atoms: _225  and  _226
REMARK   90  A    between atoms: _225  and  _228
REMARK   91  A    between atoms: _228  and  _229
REMARK   92  A    between atoms: _229  and  _230
REMARK   93  A    between atoms: _230  and  _231
REMARK   94  A    between atoms: _240  and  _242
REMARK   95  A    between atoms: _242  and  _243
REMARK   96  A    between atoms: _242  and  _245
REMARK   97  A    between atoms: _245  and  _246
REMARK   98  A    between atoms: _246  and  _247
REMARK   99  A    between atoms: _250  and  _252
REMARK  100  A    between atoms: _252  and  _253
REMARK  101  A    between atoms: _252  and  _255
REMARK  102  A    between atoms: _255  and  _256
REMARK  103  A    between atoms: _259  and  _261
REMARK  104  A    between atoms: _261  and  _262
REMARK  105  A    between atoms: _261  and  _264
REMARK  106  A    between atoms: _264  and  _265
REMARK  107  A    between atoms: _265  and  _266
REMARK  108  A    between atoms: _271  and  _273
REMARK  109  A    between atoms: _273  and  _274
REMARK  110  A    between atoms: _273  and  _276
REMARK  111  A    between atoms: _276  and  _277
REMARK  112  A    between atoms: _277  and  _278
REMARK  113  A    between atoms: _278  and  _279
REMARK  114  A    between atoms: _279  and  _280
REMARK  115  A    between atoms: _284  and  _286
REMARK  116  A    between atoms: _286  and  _287
REMARK  117  A    between atoms: _290  and  _292
REMARK  118  A    between atoms: _292  and  _293
REMARK  119  A    between atoms: _295  and  _297
REMARK  120  A    between atoms: _297  and  _298
REMARK  121  A    between atoms: _297  and  _300
REMARK  122  A    between atoms: _300  and  _301
REMARK  123  A    between atoms: _306  and  _308
REMARK  124  A    between atoms: _308  and  _309
REMARK  125  A    between atoms: _308  and  _311
REMARK  126  A    between atoms: _311  and  _312
REMARK  127  A    between atoms: _312  and  _313
REMARK  128  A    between atoms: _316  and  _318
REMARK  129  A    between atoms: _318  and  _319
REMARK  130  A    between atoms: _318  and  _321
REMARK  131  A    between atoms: _321  and  _322
REMARK  132  A    between atoms: _322  and  _323
REMARK  133  A    between atoms: _328  and  _330
REMARK  134  A    between atoms: _330  and  _331
REMARK  135  A    between atoms: _330  and  _333
REMARK  136  A    between atoms: _333  and  _334
REMARK  137  A    between atoms: _336  and  _338
REMARK  138  A    between atoms: _338  and  _339
REMARK  139  A    between atoms: _338  and  _341
REMARK  140  A    between atoms: _341  and  _342
REMARK  141  A    between atoms: _348  and  _350
REMARK  142  A    between atoms: _350  and  _351
REMARK  143  A    between atoms: _350  and  _353
REMARK  144  A    between atoms: _356  and  _358
REMARK  145  A    between atoms: _358  and  _359
REMARK  146  A    between atoms: _358  and  _361
REMARK  147  A    between atoms: _361  and  _362
REMARK  148  A    between atoms: _365  and  _367
REMARK  149  A    between atoms: _367  and  _368
REMARK  150  A    between atoms: _367  and  _370
REMARK  151  A    between atoms: _370  and  _371
REMARK  152  A    between atoms: _374  and  _376
REMARK  153  A    between atoms: _376  and  _377
REMARK  154  A    between atoms: _376  and  _379
REMARK  155  A    between atoms: _379  and  _380
REMARK  156  A    between atoms: _383  and  _385
REMARK  157  A    between atoms: _385  and  _386
REMARK  158  A    between atoms: _385  and  _388
REMARK  159  A    between atoms: _388  and  _389
REMARK  160  A    between atoms: _392  and  _394
REMARK  161  A    between atoms: _394  and  _395
REMARK  162  A    between atoms: _394  and  _397
REMARK  163  A    between atoms: _397  and  _398
REMARK  164  A    between atoms: _403  and  _404
REMARK  165  A    between atoms: _406  and  _408
REMARK  166  A    between atoms: _408  and  _409
REMARK  167  A    between atoms: _408  and  _411
REMARK  168  A    between atoms: _411  and  _412
REMARK  169  A    between atoms: _417  and  _418
REMARK  170  A    between atoms: _420  and  _422
REMARK  171  A    between atoms: _422  and  _423
REMARK  172  A    between atoms: _422  and  _425
REMARK  173  A    between atoms: _425  and  _426
REMARK  174  A    between atoms: _429  and  _431
REMARK  175  A    between atoms: _431  and  _432
REMARK  176  A    between atoms: _431  and  _434
REMARK  177  A    between atoms: _434  and  _435
REMARK  178  A    between atoms: _435  and  _436
REMARK  179  A    between atoms: _441  and  _443
REMARK  180  A    between atoms: _443  and  _444
REMARK  181  A    between atoms: _443  and  _446
REMARK  182  A    between atoms: _449  and  _451
REMARK  183  A    between atoms: _451  and  _452
REMARK  184  A    between atoms: _451  and  _454
REMARK  185  A    between atoms: _454  and  _455
REMARK  186  A    between atoms: _458  and  _460
REMARK  187  A    between atoms: _460  and  _461
REMARK  188  A    between atoms: _460  and  _463
REMARK  189  A    between atoms: _463  and  _464
REMARK  190  A    between atoms: _466  and  _468
REMARK  191  A    between atoms: _468  and  _469
REMARK  192  A    between atoms: _471  and  _473
REMARK  193  A    between atoms: _473  and  _474
REMARK  194  A    between atoms: _473  and  _476
REMARK  195  A    between atoms: _476  and  _477
REMARK  196  A    between atoms: _477  and  _772
REMARK  197  A    between atoms: _478  and  _480
REMARK  198  A    between atoms: _480  and  _481
REMARK  199  A    between atoms: _480  and  _483
REMARK  200  A    between atoms: _483  and  _484
REMARK  201  A    between atoms: _489  and  _490
REMARK  202  A    between atoms: _492  and  _494
REMARK  203  A    between atoms: _494  and  _495
REMARK  204  A    between atoms: _494  and  _497
REMARK  205  A    between atoms: _497  and  _498
REMARK  206  A    between atoms: _498  and  _499
REMARK  207  A    between atoms: _504  and  _506
REMARK  208  A    between atoms: _506  and  _507
REMARK  209  A    between atoms: _506  and  _509
REMARK  210  A    between atoms: _509  and  _510
REMARK  211  A    between atoms: _510  and  _511
REMARK  212  A    between atoms: _516  and  _518
REMARK  213  A    between atoms: _518  and  _519
REMARK  214  A    between atoms: _518  and  _521
REMARK  215  A    between atoms: _521  and  _522
REMARK  216  A    between atoms: _527  and  _528
REMARK  217  A    between atoms: _530  and  _532
REMARK  218  A    between atoms: _532  and  _533
REMARK  219  A    between atoms: _536  and  _538
REMARK  220  A    between atoms: _538  and  _539
REMARK  221  A    between atoms: _538  and  _541
REMARK  222  A    between atoms: _541  and  _542
REMARK  223  A    between atoms: _547  and  _548
REMARK  224  A    between atoms: _550  and  _552
REMARK  225  A    between atoms: _552  and  _553
REMARK  226  A    between atoms: _552  and  _555
REMARK  227  A    between atoms: _555  and  _556
REMARK  228  A    between atoms: _561  and  _562
REMARK  229  A    between atoms: _564  and  _566
REMARK  230  A    between atoms: _566  and  _567
REMARK  231  A    between atoms: _566  and  _569
REMARK  232  A    between atoms: _569  and  _570
REMARK  233  A    between atoms: _573  and  _575
REMARK  234  A    between atoms: _575  and  _576
REMARK  235  A    between atoms: _575  and  _578
REMARK  236  A    between atoms: _578  and  _579
REMARK  237  A    between atoms: _589  and  _591
REMARK  238  A    between atoms: _591  and  _592
REMARK  239  A    between atoms: _595  and  _597
REMARK  240  A    between atoms: _597  and  _598
REMARK  241  A    between atoms: _601  and  _603
REMARK  242  A    between atoms: _603  and  _604
REMARK  243  A    between atoms: _603  and  _606
REMARK  244  A    between atoms: _606  and  _607
REMARK  245  A    between atoms: _610  and  _612
REMARK  246  A    between atoms: _612  and  _613
REMARK  247  A    between atoms: _612  and  _615
REMARK  248  A    between atoms: _615  and  _616
REMARK  249  A    between atoms: _619  and  _621
REMARK  250  A    between atoms: _621  and  _622
REMARK  251  A    between atoms: _621  and  _624
REMARK  252  A    between atoms: _624  and  _625
REMARK  253  A    between atoms: _628  and  _630
REMARK  254  A    between atoms: _630  and  _631
REMARK  255  A    between atoms: _630  and  _633
REMARK  256  A    between atoms: _633  and  _634
REMARK  257  A    between atoms: _634  and  _635
REMARK  258  A    between atoms: _635  and  _636
REMARK  259  A    between atoms: _636  and  _637
REMARK  260  A    between atoms: _641  and  _643
REMARK  261  A    between atoms: _643  and  _644
REMARK  262  A    between atoms: _643  and  _646
REMARK  263  A    between atoms: _646  and  _647
REMARK  264  A    between atoms: _652  and  _654
REMARK  265  A    between atoms: _654  and  _655
REMARK  266  A    between atoms: _654  and  _657
REMARK  267  A    between atoms: _657  and  _658
REMARK  268  A    between atoms: _658  and  _659
REMARK  269  A    between atoms: _659  and  _660
REMARK  270  A    between atoms: _660  and  _661
REMARK  271  A    between atoms: _665  and  _667
REMARK  272  A    between atoms: _667  and  _668
REMARK  273  A    between atoms: _667  and  _670
REMARK  274  A    between atoms: _670  and  _671
REMARK  275  A    between atoms: _681  and  _683
REMARK  276  A    between atoms: _683  and  _684
REMARK  277  A    between atoms: _687  and  _689
REMARK  278  A    between atoms: _689  and  _690
REMARK  279  A    between atoms: _692  and  _694
REMARK  280  A    between atoms: _694  and  _695
REMARK  281  A    between atoms: _694  and  _697
REMARK  282  A    between atoms: _697  and  _698
REMARK  283  A    between atoms: _698  and  _699
REMARK  284  A    between atoms: _702  and  _704
REMARK  285  A    between atoms: _704  and  _705
REMARK  286  A    between atoms: _708  and  _710
REMARK  287  A    between atoms: _710  and  _711
REMARK  288  A    between atoms: _710  and  _713
REMARK  289  A    between atoms: _713  and  _714
REMARK  290  A    between atoms: _714  and  _715
REMARK  291  A    between atoms: _715  and  _716
REMARK  292  A    between atoms: _725  and  _727
REMARK  293  A    between atoms: _727  and  _728
REMARK  294  A    between atoms: _727  and  _730
REMARK  295  A    between atoms: _730  and  _731
REMARK  296  A    between atoms: _734  and  _736
REMARK  297  A    between atoms: _736  and  _737
REMARK  298  A    between atoms: _736  and  _739
REMARK  299  A    between atoms: _739  and  _740
REMARK  300  A    between atoms: _745  and  _746
REMARK  301  A    between atoms: _748  and  _750
REMARK  302  A    between atoms: _750  and  _751
REMARK  303  A    between atoms: _750  and  _753
REMARK  304  A    between atoms: _753  and  _754
REMARK  305  A    between atoms: _757  and  _759
REMARK  306  A    between atoms: _759  and  _760
REMARK  307  A    between atoms: _759  and  _762
REMARK  308  A    between atoms: _762  and  _763
REMARK  309  A    between atoms: _766  and  _768
REMARK  310  A    between atoms: _768  and  _769
REMARK  311  A    between atoms: _768  and  _771
REMARK  312  A    between atoms: _771  and  _772
REMARK  313  A    between atoms: _773  and  _775
REMARK  314  A    between atoms: _775  and  _776
REMARK  315  A    between atoms: _775  and  _778
REMARK  316  A    between atoms: _781  and  _783
REMARK  317  A    between atoms: _783  and  _784
REMARK  318  A    between atoms: _783  and  _786
REMARK  319  A    between atoms: _786  and  _787
REMARK  320  A    between atoms: _787  and  _788
REMARK  321  A    between atoms: _791  and  _793
REMARK  322  A    between atoms: _793  and  _794
REMARK  323  A    between atoms: _793  and  _796
REMARK  324  A    between atoms: _796  and  _797
REMARK  325  A    between atoms: _807  and  _809
REMARK  326  A    between atoms: _809  and  _810
REMARK  327  A    between atoms: _809  and  _812
REMARK  328  A    between atoms: _812  and  _813
REMARK  329  A    between atoms: _816  and  _818
REMARK  330  A    between atoms: _818  and  _819
REMARK  331  A    between atoms: _818  and  _821
REMARK  332  A    between atoms: _821  and  _822
REMARK  333  A    between atoms: _822  and  _823
REMARK  334  A    between atoms: _823  and  _824
REMARK  335  A    between atoms: _833  and  _835
REMARK  336  A    between atoms: _835  and  _836
REMARK  337  A    between atoms: _835  and  _838
REMARK  338  A    between atoms: _838  and  _839
REMARK  339  A    between atoms: _844  and  _845
REMARK                            x       y       z     vdW  Elec       q    Type
REMARK                         _______ _______ _______ _____ _____    ______ ____
ROOT
ATOM      1  O   HOH     1      40.742  65.621 -18.321  0.00  0.00    +0.000 OA
ENDROOT
TORSDOF 0
REMARK  Name = ../refined-set-2016/1fzo/1fzo_pocket.pdb
REMARK  339 active torsions:
REMARK  status: ('A' for Active; 'I' for Inactive)
REMARK    1  A    between atoms: _1  and  _3
REMARK    2  A    between atoms: _3  and  _4
REMARK    3  A    between atoms: _3  and  _6
REMARK    4  A    between atoms: _6  and  _7
REMARK    5  A    between atoms: _10  and  _12
REMARK    6  A    between atoms: _12  and  _13
REMARK    7  A    between atoms: _12  and  _15
REMARK    8  A    between atoms: _15  and  _16
REMARK    9  A    between atoms: _16  and  _17
REMARK   10  A    between atoms: _17  and  _18
REMARK   11  A    between atoms: _27  and  _29
REMARK   12  A    between atoms: _29  and  _30
REMARK   13  A    between atoms: _29  and  _32
REMARK   14  A    between atoms: _32  and  _33
REMARK   15  A    between atoms: _38  and  _39
REMARK   16  A    between atoms: _41  and  _43
REMARK   17  A    between atoms: _43  and  _44
REMARK   18  A    between atoms: _43  and  _46
REMARK   19  A    between atoms: _46  and  _47
REMARK   20  A    between atoms: _53  and  _55
REMARK   21  A    between atoms: _55  and  _56
REMARK   22  A    between atoms: _55  and  _58
REMARK   23  A    between atoms: _61  and  _63
REMARK   24  A    between atoms: _63  and  _64
REMARK   25  A    between atoms: _63  and  _66
REMARK   26  A    between atoms: _66  and  _67
REMARK   27  A    between atoms: _70  and  _72
REMARK   28  A    between atoms: _72  and  _73
REMARK   29  A    between atoms: _72  and  _75
REMARK   30  A    between atoms: _75  and  _76
REMARK   31  A    between atoms: _82  and  _84
REMARK   32  A    between atoms: _84  and  _85
REMARK   33  A    between atoms: _84  and  _87
REMARK   34  A    between atoms: _87  and  _88
REMARK   35  A    between atoms: _91  and  _93
REMARK   36  A    between atoms: _93  and  _94
REMARK   37  A    between atoms: _93  and  _96
REMARK   38  A    between atoms: _96  and  _97
REMARK   39  A    between atoms: _99  and  _101
REMARK   40  A    between atoms: _101  and  _102
REMARK   41  A    between atoms: _101  and  _104
REMARK   42  A    between atoms: _107  and  _109
REMARK   43  A    between atoms: _109  and  _110
REMARK   44  A    between atoms: _112  and  _114
REMARK   45  A    between atoms: _114  and  _115
REMARK   46  A    between atoms: _114  and  _117
REMARK   47  A    between atoms: _120  and  _122
REMARK   48  A    between atoms: _122  and  _123
REMARK   49  A    between atoms: _122  and  _125
REMARK   50  A    between atoms: _125  and  _126
REMARK   51  A    between atoms: _132  and  _134
REMARK   52  A    between atoms: _134  and  _135
REMARK   53  A    between atoms: _134  and  _137
REMARK   54  A    between atoms: _140  and  _142
REMARK   55  A    between atoms: _142  and  _143
REMARK   56  A    between atoms: _142  and  _145
REMARK   57  A    between atoms: _145  and  _146
REMARK   58  A    between atoms: _151  and  _152
REMARK   59  A    between atoms: _154  and  _156
REMARK   60  A    between atoms: _156  and  _157
REMARK   61  A    between atoms: _156  and  _159
REMARK   62  A    between atoms: _159  and  _160
REMARK   63  A    between atoms: _160  and  _161
REMARK   64  A    between atoms: _163  and  _165
REMARK   65  A    between atoms: _165  and  _166
REMARK   66  A    between atoms: _165  and  _168
REMARK   67  A    between atoms: _168  and  _169
REMARK   68  A    between atoms: _169  and  _170
REMARK   69  A    between atoms: _173  and  _175
REMARK   70  A    between atoms: _175  and  _176
REMARK   71  A    between atoms: _175  and  _178
REMARK   72  A    between atoms: _178  and  _179
REMARK   73  A    between atoms: _179  and  _180
REMARK   74  A    between atoms: _183  and  _185
REMARK   75  A    between atoms: _185  and  _186
REMARK   76  A    between atoms: _185  and  _188
REMARK   77  A    between atoms: _188  and  _189
REMARK   78  A    between atoms: _194  and  _195
REMARK   79  A    between atoms: _197  and  _199
REMARK   80  A    between atoms: _199  and  _200
REMARK   81  A    between atoms: _199  and  _202
REMARK   82  A    between atoms: _202  and  _203
REMARK   83  A    between atoms: _213  and  _215
REMARK   84  A    between atoms: _215  and  _216
REMARK   85  A    between atoms: _215  and  _218
REMARK   86  A    between atoms: _218  and  _219
REMARK   87  A    between atoms: _219  and  _220
REMARK   88  A    between atoms: _223  and  _225
REMARK   89  A    between atoms: _225  and  _226
REMARK   90  A    between atoms: _225  and  _228
REMARK   91  A    between atoms: _228  and  _229
REMARK   92  A    between atoms: _229  and  _230
REMARK   93  A    between atoms: _230  and  _231
REMARK   94  A    between atoms: _240  and  _242
REMARK   95  A    between atoms: _242  and  _243
REMARK   96  A    between atoms: _242  and  _245
REMARK   97  A    between atoms: _245  and  _246
REMARK   98  A    between atoms: _246  and  _247
REMARK   99  A    between atoms: _250  and  _252
REMARK  100  A    between atoms: _252  and  _253
REMARK  101  A    between atoms: _252  and  _255
REMARK  102  A    between atoms: _255  and  _256
REMARK  103  A    between atoms: _259  and  _261
REMARK  104  A    between atoms: _261  and  _262
REMARK  105  A    between atoms: _261  and  _264
REMARK  106  A    between atoms: _264  and  _265
REMARK  107  A    between atoms: _265  and  _266
REMARK  108  A    between atoms: _271  and  _273
REMARK  109  A    between atoms: _273  and  _274
REMARK  110  A    between atoms: _273  and  _276
REMARK  111  A    between atoms: _276  and  _277
REMARK  112  A    between atoms: _277  and  _278
REMARK  113  A    between atoms: _278  and  _279
REMARK  114  A    between atoms: _279  and  _280
REMARK  115  A    between atoms: _284  and  _286
REMARK  116  A    between atoms: _286  and  _287
REMARK  117  A    between atoms: _290  and  _292
REMARK  118  A    between atoms: _292  and  _293
REMARK  119  A    between atoms: _295  and  _297
REMARK  120  A    between atoms: _297  and  _298
REMARK  121  A    between atoms: _297  and  _300
REMARK  122  A    between atoms: _300  and  _301
REMARK  123  A    between atoms: _306  and  _308
REMARK  124  A    between atoms: _308  and  _309
REMARK  125  A    between atoms: _308  and  _311
REMARK  126  A    between atoms: _311  and  _312
REMARK  127  A    between atoms: _312  and  _313
REMARK  128  A    between atoms: _316  and  _318
REMARK  129  A    between atoms: _318  and  _319
REMARK  130  A    between atoms: _318  and  _321
REMARK  131  A    between atoms: _321  and  _322
REMARK  132  A    between atoms: _322  and  _323
REMARK  133  A    between atoms: _328  and  _330
REMARK  134  A    between atoms: _330  and  _331
REMARK  135  A    between atoms: _330  and  _333
REMARK  136  A    between atoms: _333  and  _334
REMARK  137  A    between atoms: _336  and  _338
REMARK  138  A    between atoms: _338  and  _339
REMARK  139  A    between atoms: _338  and  _341
REMARK  140  A    between atoms: _341  and  _342
REMARK  141  A    between atoms: _348  and  _350
REMARK  142  A    between atoms: _350  and  _351
REMARK  143  A    between atoms: _350  and  _353
REMARK  144  A    between atoms: _356  and  _358
REMARK  145  A    between atoms: _358  and  _359
REMARK  146  A    between atoms: _358  and  _361
REMARK  147  A    between atoms: _361  and  _362
REMARK  148  A    between atoms: _365  and  _367
REMARK  149  A    between atoms: _367  and  _368
REMARK  150  A    between atoms: _367  and  _370
REMARK  151  A    between atoms: _370  and  _371
REMARK  152  A    between atoms: _374  and  _376
REMARK  153  A    between atoms: _376  and  _377
REMARK  154  A    between atoms: _376  and  _379
REMARK  155  A    between atoms: _379  and  _380
REMARK  156  A    between atoms: _383  and  _385
REMARK  157  A    between atoms: _385  and  _386
REMARK  158  A    between atoms: _385  and  _388
REMARK  159  A    between atoms: _388  and  _389
REMARK  160  A    between atoms: _392  and  _394
REMARK  161  A    between atoms: _394  and  _395
REMARK  162  A    between atoms: _394  and  _397
REMARK  163  A    between atoms: _397  and  _398
REMARK  164  A    between atoms: _403  and  _404
REMARK  165  A    between atoms: _406  and  _408
REMARK  166  A    between atoms: _408  and  _409
REMARK  167  A    between atoms: _408  and  _411
REMARK  168  A    between atoms: _411  and  _412
REMARK  169  A    between atoms: _417  and  _418
REMARK  170  A    between atoms: _420  and  _422
REMARK  171  A    between atoms: _422  and  _423
REMARK  172  A    between atoms: _422  and  _425
REMARK  173  A    between atoms: _425  and  _426
REMARK  174  A    between atoms: _429  and  _431
REMARK  175  A    between atoms: _431  and  _432
REMARK  176  A    between atoms: _431  and  _434
REMARK  177  A    between atoms: _434  and  _435
REMARK  178  A    between atoms: _435  and  _436
REMARK  179  A    between atoms: _441  and  _443
REMARK  180  A    between atoms: _443  and  _444
REMARK  181  A    between atoms: _443  and  _446
REMARK  182  A    between atoms: _449  and  _451
REMARK  183  A    between atoms: _451  and  _452
REMARK  184  A    between atoms: _451  and  _454
REMARK  185  A    between atoms: _454  and  _455
REMARK  186  A    between atoms: _458  and  _460
REMARK  187  A    between atoms: _460  and  _461
REMARK  188  A    between atoms: _460  and  _463
REMARK  189  A    between atoms: _463  and  _464
REMARK  190  A    between atoms: _466  and  _468
REMARK  191  A    between atoms: _468  and  _469
REMARK  192  A    between atoms: _471  and  _473
REMARK  193  A    between atoms: _473  and  _474
REMARK  194  A    between atoms: _473  and  _476
REMARK  195  A    between atoms: _476  and  _477
REMARK  196  A    between atoms: _477  and  _772
REMARK  197  A    between atoms: _478  and  _480
REMARK  198  A    between atoms: _480  and  _481
REMARK  199  A    between atoms: _480  and  _483
REMARK  200  A    between atoms: _483  and  _484
REMARK  201  A    between atoms: _489  and  _490
REMARK  202  A    between atoms: _492  and  _494
REMARK  203  A    between atoms: _494  and  _495
REMARK  204  A    between atoms: _494  and  _497
REMARK  205  A    between atoms: _497  and  _498
REMARK  206  A    between atoms: _498  and  _499
REMARK  207  A    between atoms: _504  and  _506
REMARK  208  A    between atoms: _506  and  _507
REMARK  209  A    between atoms: _506  and  _509
REMARK  210  A    between atoms: _509  and  _510
REMARK  211  A    between atoms: _510  and  _511
REMARK  212  A    between atoms: _516  and  _518
REMARK  213  A    between atoms: _518  and  _519
REMARK  214  A    between atoms: _518  and  _521
REMARK  215  A    between atoms: _521  and  _522
REMARK  216  A    between atoms: _527  and  _528
REMARK  217  A    between atoms: _530  and  _532
REMARK  218  A    between atoms: _532  and  _533
REMARK  219  A    between atoms: _536  and  _538
REMARK  220  A    between atoms: _538  and  _539
REMARK  221  A    between atoms: _538  and  _541
REMARK  222  A    between atoms: _541  and  _542
REMARK  223  A    between atoms: _547  and  _548
REMARK  224  A    between atoms: _550  and  _552
REMARK  225  A    between atoms: _552  and  _553
REMARK  226  A    between atoms: _552  and  _555
REMARK  227  A    between atoms: _555  and  _556
REMARK  228  A    between atoms: _561  and  _562
REMARK  229  A    between atoms: _564  and  _566
REMARK  230  A    between atoms: _566  and  _567
REMARK  231  A    between atoms: _566  and  _569
REMARK  232  A    between atoms: _569  and  _570
REMARK  233  A    between atoms: _573  and  _575
REMARK  234  A    between atoms: _575  and  _576
REMARK  235  A    between atoms: _575  and  _578
REMARK  236  A    between atoms: _578  and  _579
REMARK  237  A    between atoms: _589  and  _591
REMARK  238  A    between atoms: _591  and  _592
REMARK  239  A    between atoms: _595  and  _597
REMARK  240  A    between atoms: _597  and  _598
REMARK  241  A    between atoms: _601  and  _603
REMARK  242  A    between atoms: _603  and  _604
REMARK  243  A    between atoms: _603  and  _606
REMARK  244  A    between atoms: _606  and  _607
REMARK  245  A    between atoms: _610  and  _612
REMARK  246  A    between atoms: _612  and  _613
REMARK  247  A    between atoms: _612  and  _615
REMARK  248  A    between atoms: _615  and  _616
REMARK  249  A    between atoms: _619  and  _621
REMARK  250  A    between atoms: _621  and  _622
REMARK  251  A    between atoms: _621  and  _624
REMARK  252  A    between atoms: _624  and  _625
REMARK  253  A    between atoms: _628  and  _630
REMARK  254  A    between atoms: _630  and  _631
REMARK  255  A    between atoms: _630  and  _633
REMARK  256  A    between atoms: _633  and  _634
REMARK  257  A    between atoms: _634  and  _635
REMARK  258  A    between atoms: _635  and  _636
REMARK  259  A    between atoms: _636  and  _637
REMARK  260  A    between atoms: _641  and  _643
REMARK  261  A    between atoms: _643  and  _644
REMARK  262  A    between atoms: _643  and  _646
REMARK  263  A    between atoms: _646  and  _647
REMARK  264  A    between atoms: _652  and  _654
REMARK  265  A    between atoms: _654  and  _655
REMARK  266  A    between atoms: _654  and  _657
REMARK  267  A    between atoms: _657  and  _658
REMARK  268  A    between atoms: _658  and  _659
REMARK  269  A    between atoms: _659  and  _660
REMARK  270  A    between atoms: _660  and  _661
REMARK  271  A    between atoms: _665  and  _667
REMARK  272  A    between atoms: _667  and  _668
REMARK  273  A    between atoms: _667  and  _670
REMARK  274  A    between atoms: _670  and  _671
REMARK  275  A    between atoms: _681  and  _683
REMARK  276  A    between atoms: _683  and  _684
REMARK  277  A    between atoms: _687  and  _689
REMARK  278  A    between atoms: _689  and  _690
REMARK  279  A    between atoms: _692  and  _694
REMARK  280  A    between atoms: _694  and  _695
REMARK  281  A    between atoms: _694  and  _697
REMARK  282  A    between atoms: _697  and  _698
REMARK  283  A    between atoms: _698  and  _699
REMARK  284  A    between atoms: _702  and  _704
REMARK  285  A    between atoms: _704  and  _705
REMARK  286  A    between atoms: _708  and  _710
REMARK  287  A    between atoms: _710  and  _711
REMARK  288  A    between atoms: _710  and  _713
REMARK  289  A    between atoms: _713  and  _714
REMARK  290  A    between atoms: _714  and  _715
REMARK  291  A    between atoms: _715  and  _716
REMARK  292  A    between atoms: _725  and  _727
REMARK  293  A    between atoms: _727  and  _728
REMARK  294  A    between atoms: _727  and  _730
REMARK  295  A    between atoms: _730  and  _731
REMARK  296  A    between atoms: _734  and  _736
REMARK  297  A    between atoms: _736  and  _737
REMARK  298  A    between atoms: _736  and  _739
REMARK  299  A    between atoms: _739  and  _740
REMARK  300  A    between atoms: _745  and  _746
REMARK  301  A    between atoms: _748  and  _750
REMARK  302  A    between atoms: _750  and  _751
REMARK  303  A    between atoms: _750  and  _753
REMARK  304  A    between atoms: _753  and  _754
REMARK  305  A    between atoms: _757  and  _759
REMARK  306  A    between atoms: _759  and  _760
REMARK  307  A    between atoms: _759  and  _762
REMARK  308  A    between atoms: _762  and  _763
REMARK  309  A    between atoms: _766  and  _768
REMARK  310  A    between atoms: _768  and  _769
REMARK  311  A    between atoms: _768  and  _771
REMARK  312  A    between atoms: _771  and  _772
REMARK  313  A    between atoms: _773  and  _775
REMARK  314  A    between atoms: _775  and  _776
REMARK  315  A    between atoms: _775  and  _778
REMARK  316  A    between atoms: _781  and  _783
REMARK  317  A    between atoms: _783  and  _784
REMARK  318  A    between atoms: _783  and  _786
REMARK  319  A    between atoms: _786  and  _787
REMARK  320  A    between atoms: _787  and  _788
REMARK  321  A    between atoms: _791  and  _793
REMARK  322  A    between atoms: _793  and  _794
REMARK  323  A    between atoms: _793  and  _796
REMARK  324  A    between atoms: _796  and  _797
REMARK  325  A    between atoms: _807  and  _809
REMARK  326  A    between atoms: _809  and  _810
REMARK  327  A    between atoms: _809  and  _812
REMARK  328  A    between atoms: _812  and  _813
REMARK  329  A    between atoms: _816  and  _818
REMARK  330  A    between atoms: _818  and  _819
REMARK  331  A    between atoms: _818  and  _821
REMARK  332  A    between atoms: _821  and  _822
REMARK  333  A    between atoms: _822  and  _823
REMARK  334  A    between atoms: _823  and  _824
REMARK  335  A    between atoms: _833  and  _835
REMARK  336  A    between atoms: _835  and  _836
REMARK  337  A    between atoms: _835  and  _838
REMARK  338  A    between atoms: _838  and  _839
REMARK  339  A    between atoms: _844  and  _845
REMARK                            x       y       z     vdW  Elec       q    Type
REMARK                         _______ _______ _______ _____ _____    ______ ____
ROOT
ATOM      1  O   HOH     1      41.769  56.458   0.714  0.00  0.00    +0.000 OA
ENDROOT
TORSDOF 0
REMARK  Name = ../refined-set-2016/1fzo/1fzo_pocket.pdb
REMARK  339 active torsions:
REMARK  status: ('A' for Active; 'I' for Inactive)
REMARK    1  A    between atoms: _1  and  _3
REMARK    2  A    between atoms: _3  and  _4
REMARK    3  A    between atoms: _3  and  _6
REMARK    4  A    between atoms: _6  and  _7
REMARK    5  A    between atoms: _10  and  _12
REMARK    6  A    between atoms: _12  and  _13
REMARK    7  A    between atoms: _12  and  _15
REMARK    8  A    between atoms: _15  and  _16
REMARK    9  A    between atoms: _16  and  _17
REMARK   10  A    between atoms: _17  and  _18
REMARK   11  A    between atoms: _27  and  _29
REMARK   12  A    between atoms: _29  and  _30
REMARK   13  A    between atoms: _29  and  _32
REMARK   14  A    between atoms: _32  and  _33
REMARK   15  A    between atoms: _38  and  _39
REMARK   16  A    between atoms: _41  and  _43
REMARK   17  A    between atoms: _43  and  _44
REMARK   18  A    between atoms: _43  and  _46
REMARK   19  A    between atoms: _46  and  _47
REMARK   20  A    between atoms: _53  and  _55
REMARK   21  A    between atoms: _55  and  _56
REMARK   22  A    between atoms: _55  and  _58
REMARK   23  A    between atoms: _61  and  _63
REMARK   24  A    between atoms: _63  and  _64
REMARK   25  A    between atoms: _63  and  _66
REMARK   26  A    between atoms: _66  and  _67
REMARK   27  A    between atoms: _70  and  _72
REMARK   28  A    between atoms: _72  and  _73
REMARK   29  A    between atoms: _72  and  _75
REMARK   30  A    between atoms: _75  and  _76
REMARK   31  A    between atoms: _82  and  _84
REMARK   32  A    between atoms: _84  and  _85
REMARK   33  A    between atoms: _84  and  _87
REMARK   34  A    between atoms: _87  and  _88
REMARK   35  A    between atoms: _91  and  _93
REMARK   36  A    between atoms: _93  and  _94
REMARK   37  A    between atoms: _93  and  _96
REMARK   38  A    between atoms: _96  and  _97
REMARK   39  A    between atoms: _99  and  _101
REMARK   40  A    between atoms: _101  and  _102
REMARK   41  A    between atoms: _101  and  _104
REMARK   42  A    between atoms: _107  and  _109
REMARK   43  A    between atoms: _109  and  _110
REMARK   44  A    between atoms: _112  and  _114
REMARK   45  A    between atoms: _114  and  _115
REMARK   46  A    between atoms: _114  and  _117
REMARK   47  A    between atoms: _120  and  _122
REMARK   48  A    between atoms: _122  and  _123
REMARK   49  A    between atoms: _122  and  _125
REMARK   50  A    between atoms: _125  and  _126
REMARK   51  A    between atoms: _132  and  _134
REMARK   52  A    between atoms: _134  and  _135
REMARK   53  A    between atoms: _134  and  _137
REMARK   54  A    between atoms: _140  and  _142
REMARK   55  A    between atoms: _142  and  _143
REMARK   56  A    between atoms: _142  and  _145
REMARK   57  A    between atoms: _145  and  _146
REMARK   58  A    between atoms: _151  and  _152
REMARK   59  A    between atoms: _154  and  _156
REMARK   60  A    between atoms: _156  and  _157
REMARK   61  A    between atoms: _156  and  _159
REMARK   62  A    between atoms: _159  and  _160
REMARK   63  A    between atoms: _160  and  _161
REMARK   64  A    between atoms: _163  and  _165
REMARK   65  A    between atoms: _165  and  _166
REMARK   66  A    between atoms: _165  and  _168
REMARK   67  A    between atoms: _168  and  _169
REMARK   68  A    between atoms: _169  and  _170
REMARK   69  A    between atoms: _173  and  _175
REMARK   70  A    between atoms: _175  and  _176
REMARK   71  A    between atoms: _175  and  _178
REMARK   72  A    between atoms: _178  and  _179
REMARK   73  A    between atoms: _179  and  _180
REMARK   74  A    between atoms: _183  and  _185
REMARK   75  A    between atoms: _185  and  _186
REMARK   76  A    between atoms: _185  and  _188
REMARK   77  A    between atoms: _188  and  _189
REMARK   78  A    between atoms: _194  and  _195
REMARK   79  A    between atoms: _197  and  _199
REMARK   80  A    between atoms: _199  and  _200
REMARK   81  A    between atoms: _199  and  _202
REMARK   82  A    between atoms: _202  and  _203
REMARK   83  A    between atoms: _213  and  _215
REMARK   84  A    between atoms: _215  and  _216
REMARK   85  A    between atoms: _215  and  _218
REMARK   86  A    between atoms: _218  and  _219
REMARK   87  A    between atoms: _219  and  _220
REMARK   88  A    between atoms: _223  and  _225
REMARK   89  A    between atoms: _225  and  _226
REMARK   90  A    between atoms: _225  and  _228
REMARK   91  A    between atoms: _228  and  _229
REMARK   92  A    between atoms: _229  and  _230
REMARK   93  A    between atoms: _230  and  _231
REMARK   94  A    between atoms: _240  and  _242
REMARK   95  A    between atoms: _242  and  _243
REMARK   96  A    between atoms: _242  and  _245
REMARK   97  A    between atoms: _245  and  _246
REMARK   98  A    between atoms: _246  and  _247
REMARK   99  A    between atoms: _250  and  _252
REMARK  100  A    between atoms: _252  and  _253
REMARK  101  A    between atoms: _252  and  _255
REMARK  102  A    between atoms: _255  and  _256
REMARK  103  A    between atoms: _259  and  _261
REMARK  104  A    between atoms: _261  and  _262
REMARK  105  A    between atoms: _261  and  _264
REMARK  106  A    between atoms: _264  and  _265
REMARK  107  A    between atoms: _265  and  _266
REMARK  108  A    between atoms: _271  and  _273
REMARK  109  A    between atoms: _273  and  _274
REMARK  110  A    between atoms: _273  and  _276
REMARK  111  A    between atoms: _276  and  _277
REMARK  112  A    between atoms: _277  and  _278
REMARK  113  A    between atoms: _278  and  _279
REMARK  114  A    between atoms: _279  and  _280
REMARK  115  A    between atoms: _284  and  _286
REMARK  116  A    between atoms: _286  and  _287
REMARK  117  A    between atoms: _290  and  _292
REMARK  118  A    between atoms: _292  and  _293
REMARK  119  A    between atoms: _295  and  _297
REMARK  120  A    between atoms: _297  and  _298
REMARK  121  A    between atoms: _297  and  _300
REMARK  122  A    between atoms: _300  and  _301
REMARK  123  A    between atoms: _306  and  _308
REMARK  124  A    between atoms: _308  and  _309
REMARK  125  A    between atoms: _308  and  _311
REMARK  126  A    between atoms: _311  and  _312
REMARK  127  A    between atoms: _312  and  _313
REMARK  128  A    between atoms: _316  and  _318
REMARK  129  A    between atoms: _318  and  _319
REMARK  130  A    between atoms: _318  and  _321
REMARK  131  A    between atoms: _321  and  _322
REMARK  132  A    between atoms: _322  and  _323
REMARK  133  A    between atoms: _328  and  _330
REMARK  134  A    between atoms: _330  and  _331
REMARK  135  A    between atoms: _330  and  _333
REMARK  136  A    between atoms: _333  and  _334
REMARK  137  A    between atoms: _336  and  _338
REMARK  138  A    between atoms: _338  and  _339
REMARK  139  A    between atoms: _338  and  _341
REMARK  140  A    between atoms: _341  and  _342
REMARK  141  A    between atoms: _348  and  _350
REMARK  142  A    between atoms: _350  and  _351
REMARK  143  A    between atoms: _350  and  _353
REMARK  144  A    between atoms: _356  and  _358
REMARK  145  A    between atoms: _358  and  _359
REMARK  146  A    between atoms: _358  and  _361
REMARK  147  A    between atoms: _361  and  _362
REMARK  148  A    between atoms: _365  and  _367
REMARK  149  A    between atoms: _367  and  _368
REMARK  150  A    between atoms: _367  and  _370
REMARK  151  A    between atoms: _370  and  _371
REMARK  152  A    between atoms: _374  and  _376
REMARK  153  A    between atoms: _376  and  _377
REMARK  154  A    between atoms: _376  and  _379
REMARK  155  A    between atoms: _379  and  _380
REMARK  156  A    between atoms: _383  and  _385
REMARK  157  A    between atoms: _385  and  _386
REMARK  158  A    between atoms: _385  and  _388
REMARK  159  A    between atoms: _388  and  _389
REMARK  160  A    between atoms: _392  and  _394
REMARK  161  A    between atoms: _394  and  _395
REMARK  162  A    between atoms: _394  and  _397
REMARK  163  A    between atoms: _397  and  _398
REMARK  164  A    between atoms: _403  and  _404
REMARK  165  A    between atoms: _406  and  _408
REMARK  166  A    between atoms: _408  and  _409
REMARK  167  A    between atoms: _408  and  _411
REMARK  168  A    between atoms: _411  and  _412
REMARK  169  A    between atoms: _417  and  _418
REMARK  170  A    between atoms: _420  and  _422
REMARK  171  A    between atoms: _422  and  _423
REMARK  172  A    between atoms: _422  and  _425
REMARK  173  A    between atoms: _425  and  _426
REMARK  174  A    between atoms: _429  and  _431
REMARK  175  A    between atoms: _431  and  _432
REMARK  176  A    between atoms: _431  and  _434
REMARK  177  A    between atoms: _434  and  _435
REMARK  178  A    between atoms: _435  and  _436
REMARK  179  A    between atoms: _441  and  _443
REMARK  180  A    between atoms: _443  and  _444
REMARK  181  A    between atoms: _443  and  _446
REMARK  182  A    between atoms: _449  and  _451
REMARK  183  A    between atoms: _451  and  _452
REMARK  184  A    between atoms: _451  and  _454
REMARK  185  A    between atoms: _454  and  _455
REMARK  186  A    between atoms: _458  and  _460
REMARK  187  A    between atoms: _460  and  _461
REMARK  188  A    between atoms: _460  and  _463
REMARK  189  A    between atoms: _463  and  _464
REMARK  190  A    between atoms: _466  and  _468
REMARK  191  A    between atoms: _468  and  _469
REMARK  192  A    between atoms: _471  and  _473
REMARK  193  A    between atoms: _473  and  _474
REMARK  194  A    between atoms: _473  and  _476
REMARK  195  A    between atoms: _476  and  _477
REMARK  196  A    between atoms: _477  and  _772
REMARK  197  A    between atoms: _478  and  _480
REMARK  198  A    between atoms: _480  and  _481
REMARK  199  A    between atoms: _480  and  _483
REMARK  200  A    between atoms: _483  and  _484
REMARK  201  A    between atoms: _489  and  _490
REMARK  202  A    between atoms: _492  and  _494
REMARK  203  A    between atoms: _494  and  _495
REMARK  204  A    between atoms: _494  and  _497
REMARK  205  A    between atoms: _497  and  _498
REMARK  206  A    between atoms: _498  and  _499
REMARK  207  A    between atoms: _504  and  _506
REMARK  208  A    between atoms: _506  and  _507
REMARK  209  A    between atoms: _506  and  _509
REMARK  210  A    between atoms: _509  and  _510
REMARK  211  A    between atoms: _510  and  _511
REMARK  212  A    between atoms: _516  and  _518
REMARK  213  A    between atoms: _518  and  _519
REMARK  214  A    between atoms: _518  and  _521
REMARK  215  A    between atoms: _521  and  _522
REMARK  216  A    between atoms: _527  and  _528
REMARK  217  A    between atoms: _530  and  _532
REMARK  218  A    between atoms: _532  and  _533
REMARK  219  A    between atoms: _536  and  _538
REMARK  220  A    between atoms: _538  and  _539
REMARK  221  A    between atoms: _538  and  _541
REMARK  222  A    between atoms: _541  and  _542
REMARK  223  A    between atoms: _547  and  _548
REMARK  224  A    between atoms: _550  and  _552
REMARK  225  A    between atoms: _552  and  _553
REMARK  226  A    between atoms: _552  and  _555
REMARK  227  A    between atoms: _555  and  _556
REMARK  228  A    between atoms: _561  and  _562
REMARK  229  A    between atoms: _564  and  _566
REMARK  230  A    between atoms: _566  and  _567
REMARK  231  A    between atoms: _566  and  _569
REMARK  232  A    between atoms: _569  and  _570
REMARK  233  A    between atoms: _573  and  _575
REMARK  234  A    between atoms: _575  and  _576
REMARK  235  A    between atoms: _575  and  _578
REMARK  236  A    between atoms: _578  and  _579
REMARK  237  A    between atoms: _589  and  _591
REMARK  238  A    between atoms: _591  and  _592
REMARK  239  A    between atoms: _595  and  _597
REMARK  240  A    between atoms: _597  and  _598
REMARK  241  A    between atoms: _601  and  _603
REMARK  242  A    between atoms: _603  and  _604
REMARK  243  A    between atoms: _603  and  _606
REMARK  244  A    between atoms: _606  and  _607
REMARK  245  A    between atoms: _610  and  _612
REMARK  246  A    between atoms: _612  and  _613
REMARK  247  A    between atoms: _612  and  _615
REMARK  248  A    between atoms: _615  and  _616
REMARK  249  A    between atoms: _619  and  _621
REMARK  250  A    between atoms: _621  and  _622
REMARK  251  A    between atoms: _621  and  _624
REMARK  252  A    between atoms: _624  and  _625
REMARK  253  A    between atoms: _628  and  _630
REMARK  254  A    between atoms: _630  and  _631
REMARK  255  A    between atoms: _630  and  _633
REMARK  256  A    between atoms: _633  and  _634
REMARK  257  A    between atoms: _634  and  _635
REMARK  258  A    between atoms: _635  and  _636
REMARK  259  A    between atoms: _636  and  _637
REMARK  260  A    between atoms: _641  and  _643
REMARK  261  A    between atoms: _643  and  _644
REMARK  262  A    between atoms: _643  and  _646
REMARK  263  A    between atoms: _646  and  _647
REMARK  264  A    between atoms: _652  and  _654
REMARK  265  A    between atoms: _654  and  _655
REMARK  266  A    between atoms: _654  and  _657
REMARK  267  A    between atoms: _657  and  _658
REMARK  268  A    between atoms: _658  and  _659
REMARK  269  A    between atoms: _659  and  _660
REMARK  270  A    between atoms: _660  and  _661
REMARK  271  A    between atoms: _665  and  _667
REMARK  272  A    between atoms: _667  and  _668
REMARK  273  A    between atoms: _667  and  _670
REMARK  274  A    between atoms: _670  and  _671
REMARK  275  A    between atoms: _681  and  _683
REMARK  276  A    between atoms: _683  and  _684
REMARK  277  A    between atoms: _687  and  _689
REMARK  278  A    between atoms: _689  and  _690
REMARK  279  A    between atoms: _692  and  _694
REMARK  280  A    between atoms: _694  and  _695
REMARK  281  A    between atoms: _694  and  _697
REMARK  282  A    between atoms: _697  and  _698
REMARK  283  A    between atoms: _698  and  _699
REMARK  284  A    between atoms: _702  and  _704
REMARK  285  A    between atoms: _704  and  _705
REMARK  286  A    between atoms: _708  and  _710
REMARK  287  A    between atoms: _710  and  _711
REMARK  288  A    between atoms: _710  and  _713
REMARK  289  A    between atoms: _713  and  _714
REMARK  290  A    between atoms: _714  and  _715
REMARK  291  A    between atoms: _715  and  _716
REMARK  292  A    between atoms: _725  and  _727
REMARK  293  A    between atoms: _727  and  _728
REMARK  294  A    between atoms: _727  and  _730
REMARK  295  A    between atoms: _730  and  _731
REMARK  296  A    between atoms: _734  and  _736
REMARK  297  A    between atoms: _736  and  _737
REMARK  298  A    between atoms: _736  and  _739
REMARK  299  A    between atoms: _739  and  _740
REMARK  300  A    between atoms: _745  and  _746
REMARK  301  A    between atoms: _748  and  _750
REMARK  302  A    between atoms: _750  and  _751
REMARK  303  A    between atoms: _750  and  _753
REMARK  304  A    between atoms: _753  and  _754
REMARK  305  A    between atoms: _757  and  _759
REMARK  306  A    between atoms: _759  and  _760
REMARK  307  A    between atoms: _759  and  _762
REMARK  308  A    between atoms: _762  and  _763
REMARK  309  A    between atoms: _766  and  _768
REMARK  310  A    between atoms: _768  and  _769
REMARK  311  A    between atoms: _768  and  _771
REMARK  312  A    between atoms: _771  and  _772
REMARK  313  A    between atoms: _773  and  _775
REMARK  314  A    between atoms: _775  and  _776
REMARK  315  A    between atoms: _775  and  _778
REMARK  316  A    between atoms: _781  and  _783
REMARK  317  A    between atoms: _783  and  _784
REMARK  318  A    between atoms: _783  and  _786
REMARK  319  A    between atoms: _786  and  _787
REMARK  320  A    between atoms: _787  and  _788
REMARK  321  A    between atoms: _791  and  _793
REMARK  322  A    between atoms: _793  and  _794
REMARK  323  A    between atoms: _793  and  _796
REMARK  324  A    between atoms: _796  and  _797
REMARK  325  A    between atoms: _807  and  _809
REMARK  326  A    between atoms: _809  and  _810
REMARK  327  A    between atoms: _809  and  _812
REMARK  328  A    between atoms: _812  and  _813
REMARK  329  A    between atoms: _816  and  _818
REMARK  330  A    between atoms: _818  and  _819
REMARK  331  A    between atoms: _818  and  _821
REMARK  332  A    between atoms: _821  and  _822
REMARK  333  A    between atoms: _822  and  _823
REMARK  334  A    between atoms: _823  and  _824
REMARK  335  A    between atoms: _833  and  _835
REMARK  336  A    between atoms: _835  and  _836
REMARK  337  A    between atoms: _835  and  _838
REMARK  338  A    between atoms: _838  and  _839
REMARK  339  A    between atoms: _844  and  _845
REMARK                            x       y       z     vdW  Elec       q    Type
REMARK                         _______ _______ _______ _____ _____    ______ ____
ROOT
ATOM      1  O   HOH     1      38.555  59.764  -4.653  0.00  0.00    +0.000 OA
ENDROOT
TORSDOF 0
REMARK  Name = ../refined-set-2016/1fzo/1fzo_pocket.pdb
REMARK  339 active torsions:
REMARK  status: ('A' for Active; 'I' for Inactive)
REMARK    1  A    between atoms: _1  and  _3
REMARK    2  A    between atoms: _3  and  _4
REMARK    3  A    between atoms: _3  and  _6
REMARK    4  A    between atoms: _6  and  _7
REMARK    5  A    between atoms: _10  and  _12
REMARK    6  A    between atoms: _12  and  _13
REMARK    7  A    between atoms: _12  and  _15
REMARK    8  A    between atoms: _15  and  _16
REMARK    9  A    between atoms: _16  and  _17
REMARK   10  A    between atoms: _17  and  _18
REMARK   11  A    between atoms: _27  and  _29
REMARK   12  A    between atoms: _29  and  _30
REMARK   13  A    between atoms: _29  and  _32
REMARK   14  A    between atoms: _32  and  _33
REMARK   15  A    between atoms: _38  and  _39
REMARK   16  A    between atoms: _41  and  _43
REMARK   17  A    between atoms: _43  and  _44
REMARK   18  A    between atoms: _43  and  _46
REMARK   19  A    between atoms: _46  and  _47
REMARK   20  A    between atoms: _53  and  _55
REMARK   21  A    between atoms: _55  and  _56
REMARK   22  A    between atoms: _55  and  _58
REMARK   23  A    between atoms: _61  and  _63
REMARK   24  A    between atoms: _63  and  _64
REMARK   25  A    between atoms: _63  and  _66
REMARK   26  A    between atoms: _66  and  _67
REMARK   27  A    between atoms: _70  and  _72
REMARK   28  A    between atoms: _72  and  _73
REMARK   29  A    between atoms: _72  and  _75
REMARK   30  A    between atoms: _75  and  _76
REMARK   31  A    between atoms: _82  and  _84
REMARK   32  A    between atoms: _84  and  _85
REMARK   33  A    between atoms: _84  and  _87
REMARK   34  A    between atoms: _87  and  _88
REMARK   35  A    between atoms: _91  and  _93
REMARK   36  A    between atoms: _93  and  _94
REMARK   37  A    between atoms: _93  and  _96
REMARK   38  A    between atoms: _96  and  _97
REMARK   39  A    between atoms: _99  and  _101
REMARK   40  A    between atoms: _101  and  _102
REMARK   41  A    between atoms: _101  and  _104
REMARK   42  A    between atoms: _107  and  _109
REMARK   43  A    between atoms: _109  and  _110
REMARK   44  A    between atoms: _112  and  _114
REMARK   45  A    between atoms: _114  and  _115
REMARK   46  A    between atoms: _114  and  _117
REMARK   47  A    between atoms: _120  and  _122
REMARK   48  A    between atoms: _122  and  _123
REMARK   49  A    between atoms: _122  and  _125
REMARK   50  A    between atoms: _125  and  _126
REMARK   51  A    between atoms: _132  and  _134
REMARK   52  A    between atoms: _134  and  _135
REMARK   53  A    between atoms: _134  and  _137
REMARK   54  A    between atoms: _140  and  _142
REMARK   55  A    between atoms: _142  and  _143
REMARK   56  A    between atoms: _142  and  _145
REMARK   57  A    between atoms: _145  and  _146
REMARK   58  A    between atoms: _151  and  _152
REMARK   59  A    between atoms: _154  and  _156
REMARK   60  A    between atoms: _156  and  _157
REMARK   61  A    between atoms: _156  and  _159
REMARK   62  A    between atoms: _159  and  _160
REMARK   63  A    between atoms: _160  and  _161
REMARK   64  A    between atoms: _163  and  _165
REMARK   65  A    between atoms: _165  and  _166
REMARK   66  A    between atoms: _165  and  _168
REMARK   67  A    between atoms: _168  and  _169
REMARK   68  A    between atoms: _169  and  _170
REMARK   69  A    between atoms: _173  and  _175
REMARK   70  A    between atoms: _175  and  _176
REMARK   71  A    between atoms: _175  and  _178
REMARK   72  A    between atoms: _178  and  _179
REMARK   73  A    between atoms: _179  and  _180
REMARK   74  A    between atoms: _183  and  _185
REMARK   75  A    between atoms: _185  and  _186
REMARK   76  A    between atoms: _185  and  _188
REMARK   77  A    between atoms: _188  and  _189
REMARK   78  A    between atoms: _194  and  _195
REMARK   79  A    between atoms: _197  and  _199
REMARK   80  A    between atoms: _199  and  _200
REMARK   81  A    between atoms: _199  and  _202
REMARK   82  A    between atoms: _202  and  _203
REMARK   83  A    between atoms: _213  and  _215
REMARK   84  A    between atoms: _215  and  _216
REMARK   85  A    between atoms: _215  and  _218
REMARK   86  A    between atoms: _218  and  _219
REMARK   87  A    between atoms: _219  and  _220
REMARK   88  A    between atoms: _223  and  _225
REMARK   89  A    between atoms: _225  and  _226
REMARK   90  A    between atoms: _225  and  _228
REMARK   91  A    between atoms: _228  and  _229
REMARK   92  A    between atoms: _229  and  _230
REMARK   93  A    between atoms: _230  and  _231
REMARK   94  A    between atoms: _240  and  _242
REMARK   95  A    between atoms: _242  and  _243
REMARK   96  A    between atoms: _242  and  _245
REMARK   97  A    between atoms: _245  and  _246
REMARK   98  A    between atoms: _246  and  _247
REMARK   99  A    between atoms: _250  and  _252
REMARK  100  A    between atoms: _252  and  _253
REMARK  101  A    between atoms: _252  and  _255
REMARK  102  A    between atoms: _255  and  _256
REMARK  103  A    between atoms: _259  and  _261
REMARK  104  A    between atoms: _261  and  _262
REMARK  105  A    between atoms: _261  and  _264
REMARK  106  A    between atoms: _264  and  _265
REMARK  107  A    between atoms: _265  and  _266
REMARK  108  A    between atoms: _271  and  _273
REMARK  109  A    between atoms: _273  and  _274
REMARK  110  A    between atoms: _273  and  _276
REMARK  111  A    between atoms: _276  and  _277
REMARK  112  A    between atoms: _277  and  _278
REMARK  113  A    between atoms: _278  and  _279
REMARK  114  A    between atoms: _279  and  _280
REMARK  115  A    between atoms: _284  and  _286
REMARK  116  A    between atoms: _286  and  _287
REMARK  117  A    between atoms: _290  and  _292
REMARK  118  A    between atoms: _292  and  _293
REMARK  119  A    between atoms: _295  and  _297
REMARK  120  A    between atoms: _297  and  _298
REMARK  121  A    between atoms: _297  and  _300
REMARK  122  A    between atoms: _300  and  _301
REMARK  123  A    between atoms: _306  and  _308
REMARK  124  A    between atoms: _308  and  _309
REMARK  125  A    between atoms: _308  and  _311
REMARK  126  A    between atoms: _311  and  _312
REMARK  127  A    between atoms: _312  and  _313
REMARK  128  A    between atoms: _316  and  _318
REMARK  129  A    between atoms: _318  and  _319
REMARK  130  A    between atoms: _318  and  _321
REMARK  131  A    between atoms: _321  and  _322
REMARK  132  A    between atoms: _322  and  _323
REMARK  133  A    between atoms: _328  and  _330
REMARK  134  A    between atoms: _330  and  _331
REMARK  135  A    between atoms: _330  and  _333
REMARK  136  A    between atoms: _333  and  _334
REMARK  137  A    between atoms: _336  and  _338
REMARK  138  A    between atoms: _338  and  _339
REMARK  139  A    between atoms: _338  and  _341
REMARK  140  A    between atoms: _341  and  _342
REMARK  141  A    between atoms: _348  and  _350
REMARK  142  A    between atoms: _350  and  _351
REMARK  143  A    between atoms: _350  and  _353
REMARK  144  A    between atoms: _356  and  _358
REMARK  145  A    between atoms: _358  and  _359
REMARK  146  A    between atoms: _358  and  _361
REMARK  147  A    between atoms: _361  and  _362
REMARK  148  A    between atoms: _365  and  _367
REMARK  149  A    between atoms: _367  and  _368
REMARK  150  A    between atoms: _367  and  _370
REMARK  151  A    between atoms: _370  and  _371
REMARK  152  A    between atoms: _374  and  _376
REMARK  153  A    between atoms: _376  and  _377
REMARK  154  A    between atoms: _376  and  _379
REMARK  155  A    between atoms: _379  and  _380
REMARK  156  A    between atoms: _383  and  _385
REMARK  157  A    between atoms: _385  and  _386
REMARK  158  A    between atoms: _385  and  _388
REMARK  159  A    between atoms: _388  and  _389
REMARK  160  A    between atoms: _392  and  _394
REMARK  161  A    between atoms: _394  and  _395
REMARK  162  A    between atoms: _394  and  _397
REMARK  163  A    between atoms: _397  and  _398
REMARK  164  A    between atoms: _403  and  _404
REMARK  165  A    between atoms: _406  and  _408
REMARK  166  A    between atoms: _408  and  _409
REMARK  167  A    between atoms: _408  and  _411
REMARK  168  A    between atoms: _411  and  _412
REMARK  169  A    between atoms: _417  and  _418
REMARK  170  A    between atoms: _420  and  _422
REMARK  171  A    between atoms: _422  and  _423
REMARK  172  A    between atoms: _422  and  _425
REMARK  173  A    between atoms: _425  and  _426
REMARK  174  A    between atoms: _429  and  _431
REMARK  175  A    between atoms: _431  and  _432
REMARK  176  A    between atoms: _431  and  _434
REMARK  177  A    between atoms: _434  and  _435
REMARK  178  A    between atoms: _435  and  _436
REMARK  179  A    between atoms: _441  and  _443
REMARK  180  A    between atoms: _443  and  _444
REMARK  181  A    between atoms: _443  and  _446
REMARK  182  A    between atoms: _449  and  _451
REMARK  183  A    between atoms: _451  and  _452
REMARK  184  A    between atoms: _451  and  _454
REMARK  185  A    between atoms: _454  and  _455
REMARK  186  A    between atoms: _458  and  _460
REMARK  187  A    between atoms: _460  and  _461
REMARK  188  A    between atoms: _460  and  _463
REMARK  189  A    between atoms: _463  and  _464
REMARK  190  A    between atoms: _466  and  _468
REMARK  191  A    between atoms: _468  and  _469
REMARK  192  A    between atoms: _471  and  _473
REMARK  193  A    between atoms: _473  and  _474
REMARK  194  A    between atoms: _473  and  _476
REMARK  195  A    between atoms: _476  and  _477
REMARK  196  A    between atoms: _477  and  _772
REMARK  197  A    between atoms: _478  and  _480
REMARK  198  A    between atoms: _480  and  _481
REMARK  199  A    between atoms: _480  and  _483
REMARK  200  A    between atoms: _483  and  _484
REMARK  201  A    between atoms: _489  and  _490
REMARK  202  A    between atoms: _492  and  _494
REMARK  203  A    between atoms: _494  and  _495
REMARK  204  A    between atoms: _494  and  _497
REMARK  205  A    between atoms: _497  and  _498
REMARK  206  A    between atoms: _498  and  _499
REMARK  207  A    between atoms: _504  and  _506
REMARK  208  A    between atoms: _506  and  _507
REMARK  209  A    between atoms: _506  and  _509
REMARK  210  A    between atoms: _509  and  _510
REMARK  211  A    between atoms: _510  and  _511
REMARK  212  A    between atoms: _516  and  _518
REMARK  213  A    between atoms: _518  and  _519
REMARK  214  A    between atoms: _518  and  _521
REMARK  215  A    between atoms: _521  and  _522
REMARK  216  A    between atoms: _527  and  _528
REMARK  217  A    between atoms: _530  and  _532
REMARK  218  A    between atoms: _532  and  _533
REMARK  219  A    between atoms: _536  and  _538
REMARK  220  A    between atoms: _538  and  _539
REMARK  221  A    between atoms: _538  and  _541
REMARK  222  A    between atoms: _541  and  _542
REMARK  223  A    between atoms: _547  and  _548
REMARK  224  A    between atoms: _550  and  _552
REMARK  225  A    between atoms: _552  and  _553
REMARK  226  A    between atoms: _552  and  _555
REMARK  227  A    between atoms: _555  and  _556
REMARK  228  A    between atoms: _561  and  _562
REMARK  229  A    between atoms: _564  and  _566
REMARK  230  A    between atoms: _566  and  _567
REMARK  231  A    between atoms: _566  and  _569
REMARK  232  A    between atoms: _569  and  _570
REMARK  233  A    between atoms: _573  and  _575
REMARK  234  A    between atoms: _575  and  _576
REMARK  235  A    between atoms: _575  and  _578
REMARK  236  A    between atoms: _578  and  _579
REMARK  237  A    between atoms: _589  and  _591
REMARK  238  A    between atoms: _591  and  _592
REMARK  239  A    between atoms: _595  and  _597
REMARK  240  A    between atoms: _597  and  _598
REMARK  241  A    between atoms: _601  and  _603
REMARK  242  A    between atoms: _603  and  _604
REMARK  243  A    between atoms: _603  and  _606
REMARK  244  A    between atoms: _606  and  _607
REMARK  245  A    between atoms: _610  and  _612
REMARK  246  A    between atoms: _612  and  _613
REMARK  247  A    between atoms: _612  and  _615
REMARK  248  A    between atoms: _615  and  _616
REMARK  249  A    between atoms: _619  and  _621
REMARK  250  A    between atoms: _621  and  _622
REMARK  251  A    between atoms: _621  and  _624
REMARK  252  A    between atoms: _624  and  _625
REMARK  253  A    between atoms: _628  and  _630
REMARK  254  A    between atoms: _630  and  _631
REMARK  255  A    between atoms: _630  and  _633
REMARK  256  A    between atoms: _633  and  _634
REMARK  257  A    between atoms: _634  and  _635
REMARK  258  A    between atoms: _635  and  _636
REMARK  259  A    between atoms: _636  and  _637
REMARK  260  A    between atoms: _641  and  _643
REMARK  261  A    between atoms: _643  and  _644
REMARK  262  A    between atoms: _643  and  _646
REMARK  263  A    between atoms: _646  and  _647
REMARK  264  A    between atoms: _652  and  _654
REMARK  265  A    between atoms: _654  and  _655
REMARK  266  A    between atoms: _654  and  _657
REMARK  267  A    between atoms: _657  and  _658
REMARK  268  A    between atoms: _658  and  _659
REMARK  269  A    between atoms: _659  and  _660
REMARK  270  A    between atoms: _660  and  _661
REMARK  271  A    between atoms: _665  and  _667
REMARK  272  A    between atoms: _667  and  _668
REMARK  273  A    between atoms: _667  and  _670
REMARK  274  A    between atoms: _670  and  _671
REMARK  275  A    between atoms: _681  and  _683
REMARK  276  A    between atoms: _683  and  _684
REMARK  277  A    between atoms: _687  and  _689
REMARK  278  A    between atoms: _689  and  _690
REMARK  279  A    between atoms: _692  and  _694
REMARK  280  A    between atoms: _694  and  _695
REMARK  281  A    between atoms: _694  and  _697
REMARK  282  A    between atoms: _697  and  _698
REMARK  283  A    between atoms: _698  and  _699
REMARK  284  A    between atoms: _702  and  _704
REMARK  285  A    between atoms: _704  and  _705
REMARK  286  A    between atoms: _708  and  _710
REMARK  287  A    between atoms: _710  and  _711
REMARK  288  A    between atoms: _710  and  _713
REMARK  289  A    between atoms: _713  and  _714
REMARK  290  A    between atoms: _714  and  _715
REMARK  291  A    between atoms: _715  and  _716
REMARK  292  A    between atoms: _725  and  _727
REMARK  293  A    between atoms: _727  and  _728
REMARK  294  A    between atoms: _727  and  _730
REMARK  295  A    between atoms: _730  and  _731
REMARK  296  A    between atoms: _734  and  _736
REMARK  297  A    between atoms: _736  and  _737
REMARK  298  A    between atoms: _736  and  _739
REMARK  299  A    between atoms: _739  and  _740
REMARK  300  A    between atoms: _745  and  _746
REMARK  301  A    between atoms: _748  and  _750
REMARK  302  A    between atoms: _750  and  _751
REMARK  303  A    between atoms: _750  and  _753
REMARK  304  A    between atoms: _753  and  _754
REMARK  305  A    between atoms: _757  and  _759
REMARK  306  A    between atoms: _759  and  _760
REMARK  307  A    between atoms: _759  and  _762
REMARK  308  A    between atoms: _762  and  _763
REMARK  309  A    between atoms: _766  and  _768
REMARK  310  A    between atoms: _768  and  _769
REMARK  311  A    between atoms: _768  and  _771
REMARK  312  A    between atoms: _771  and  _772
REMARK  313  A    between atoms: _773  and  _775
REMARK  314  A    between atoms: _775  and  _776
REMARK  315  A    between atoms: _775  and  _778
REMARK  316  A    between atoms: _781  and  _783
REMARK  317  A    between atoms: _783  and  _784
REMARK  318  A    between atoms: _783  and  _786
REMARK  319  A    between atoms: _786  and  _787
REMARK  320  A    between atoms: _787  and  _788
REMARK  321  A    between atoms: _791  and  _793
REMARK  322  A    between atoms: _793  and  _794
REMARK  323  A    between atoms: _793  and  _796
REMARK  324  A    between atoms: _796  and  _797
REMARK  325  A    between atoms: _807  and  _809
REMARK  326  A    between atoms: _809  and  _810
REMARK  327  A    between atoms: _809  and  _812
REMARK  328  A    between atoms: _812  and  _813
REMARK  329  A    between atoms: _816  and  _818
REMARK  330  A    between atoms: _818  and  _819
REMARK  331  A    between atoms: _818  and  _821
REMARK  332  A    between atoms: _821  and  _822
REMARK  333  A    between atoms: _822  and  _823
REMARK  334  A    between atoms: _823  and  _824
REMARK  335  A    between atoms: _833  and  _835
REMARK  336  A    between atoms: _835  and  _836
REMARK  337  A    between atoms: _835  and  _838
REMARK  338  A    between atoms: _838  and  _839
REMARK  339  A    between atoms: _844  and  _845
REMARK                            x       y       z     vdW  Elec       q    Type
REMARK                         _______ _______ _______ _____ _____    ______ ____
ROOT
ATOM      1  O   HOH     1      46.547  55.404   5.748  0.00  0.00    +0.000 OA
ENDROOT
TORSDOF 0
REMARK  Name = ../refined-set-2016/1fzo/1fzo_pocket.pdb
REMARK  339 active torsions:
REMARK  status: ('A' for Active; 'I' for Inactive)
REMARK    1  A    between atoms: _1  and  _3
REMARK    2  A    between atoms: _3  and  _4
REMARK    3  A    between atoms: _3  and  _6
REMARK    4  A    between atoms: _6  and  _7
REMARK    5  A    between atoms: _10  and  _12
REMARK    6  A    between atoms: _12  and  _13
REMARK    7  A    between atoms: _12  and  _15
REMARK    8  A    between atoms: _15  and  _16
REMARK    9  A    between atoms: _16  and  _17
REMARK   10  A    between atoms: _17  and  _18
REMARK   11  A    between atoms: _27  and  _29
REMARK   12  A    between atoms: _29  and  _30
REMARK   13  A    between atoms: _29  and  _32
REMARK   14  A    between atoms: _32  and  _33
REMARK   15  A    between atoms: _38  and  _39
REMARK   16  A    between atoms: _41  and  _43
REMARK   17  A    between atoms: _43  and  _44
REMARK   18  A    between atoms: _43  and  _46
REMARK   19  A    between atoms: _46  and  _47
REMARK   20  A    between atoms: _53  and  _55
REMARK   21  A    between atoms: _55  and  _56
REMARK   22  A    between atoms: _55  and  _58
REMARK   23  A    between atoms: _61  and  _63
REMARK   24  A    between atoms: _63  and  _64
REMARK   25  A    between atoms: _63  and  _66
REMARK   26  A    between atoms: _66  and  _67
REMARK   27  A    between atoms: _70  and  _72
REMARK   28  A    between atoms: _72  and  _73
REMARK   29  A    between atoms: _72  and  _75
REMARK   30  A    between atoms: _75  and  _76
REMARK   31  A    between atoms: _82  and  _84
REMARK   32  A    between atoms: _84  and  _85
REMARK   33  A    between atoms: _84  and  _87
REMARK   34  A    between atoms: _87  and  _88
REMARK   35  A    between atoms: _91  and  _93
REMARK   36  A    between atoms: _93  and  _94
REMARK   37  A    between atoms: _93  and  _96
REMARK   38  A    between atoms: _96  and  _97
REMARK   39  A    between atoms: _99  and  _101
REMARK   40  A    between atoms: _101  and  _102
REMARK   41  A    between atoms: _101  and  _104
REMARK   42  A    between atoms: _107  and  _109
REMARK   43  A    between atoms: _109  and  _110
REMARK   44  A    between atoms: _112  and  _114
REMARK   45  A    between atoms: _114  and  _115
REMARK   46  A    between atoms: _114  and  _117
REMARK   47  A    between atoms: _120  and  _122
REMARK   48  A    between atoms: _122  and  _123
REMARK   49  A    between atoms: _122  and  _125
REMARK   50  A    between atoms: _125  and  _126
REMARK   51  A    between atoms: _132  and  _134
REMARK   52  A    between atoms: _134  and  _135
REMARK   53  A    between atoms: _134  and  _137
REMARK   54  A    between atoms: _140  and  _142
REMARK   55  A    between atoms: _142  and  _143
REMARK   56  A    between atoms: _142  and  _145
REMARK   57  A    between atoms: _145  and  _146
REMARK   58  A    between atoms: _151  and  _152
REMARK   59  A    between atoms: _154  and  _156
REMARK   60  A    between atoms: _156  and  _157
REMARK   61  A    between atoms: _156  and  _159
REMARK   62  A    between atoms: _159  and  _160
REMARK   63  A    between atoms: _160  and  _161
REMARK   64  A    between atoms: _163  and  _165
REMARK   65  A    between atoms: _165  and  _166
REMARK   66  A    between atoms: _165  and  _168
REMARK   67  A    between atoms: _168  and  _169
REMARK   68  A    between atoms: _169  and  _170
REMARK   69  A    between atoms: _173  and  _175
REMARK   70  A    between atoms: _175  and  _176
REMARK   71  A    between atoms: _175  and  _178
REMARK   72  A    between atoms: _178  and  _179
REMARK   73  A    between atoms: _179  and  _180
REMARK   74  A    between atoms: _183  and  _185
REMARK   75  A    between atoms: _185  and  _186
REMARK   76  A    between atoms: _185  and  _188
REMARK   77  A    between atoms: _188  and  _189
REMARK   78  A    between atoms: _194  and  _195
REMARK   79  A    between atoms: _197  and  _199
REMARK   80  A    between atoms: _199  and  _200
REMARK   81  A    between atoms: _199  and  _202
REMARK   82  A    between atoms: _202  and  _203
REMARK   83  A    between atoms: _213  and  _215
REMARK   84  A    between atoms: _215  and  _216
REMARK   85  A    between atoms: _215  and  _218
REMARK   86  A    between atoms: _218  and  _219
REMARK   87  A    between atoms: _219  and  _220
REMARK   88  A    between atoms: _223  and  _225
REMARK   89  A    between atoms: _225  and  _226
REMARK   90  A    between atoms: _225  and  _228
REMARK   91  A    between atoms: _228  and  _229
REMARK   92  A    between atoms: _229  and  _230
REMARK   93  A    between atoms: _230  and  _231
REMARK   94  A    between atoms: _240  and  _242
REMARK   95  A    between atoms: _242  and  _243
REMARK   96  A    between atoms: _242  and  _245
REMARK   97  A    between atoms: _245  and  _246
REMARK   98  A    between atoms: _246  and  _247
REMARK   99  A    between atoms: _250  and  _252
REMARK  100  A    between atoms: _252  and  _253
REMARK  101  A    between atoms: _252  and  _255
REMARK  102  A    between atoms: _255  and  _256
REMARK  103  A    between atoms: _259  and  _261
REMARK  104  A    between atoms: _261  and  _262
REMARK  105  A    between atoms: _261  and  _264
REMARK  106  A    between atoms: _264  and  _265
REMARK  107  A    between atoms: _265  and  _266
REMARK  108  A    between atoms: _271  and  _273
REMARK  109  A    between atoms: _273  and  _274
REMARK  110  A    between atoms: _273  and  _276
REMARK  111  A    between atoms: _276  and  _277
REMARK  112  A    between atoms: _277  and  _278
REMARK  113  A    between atoms: _278  and  _279
REMARK  114  A    between atoms: _279  and  _280
REMARK  115  A    between atoms: _284  and  _286
REMARK  116  A    between atoms: _286  and  _287
REMARK  117  A    between atoms: _290  and  _292
REMARK  118  A    between atoms: _292  and  _293
REMARK  119  A    between atoms: _295  and  _297
REMARK  120  A    between atoms: _297  and  _298
REMARK  121  A    between atoms: _297  and  _300
REMARK  122  A    between atoms: _300  and  _301
REMARK  123  A    between atoms: _306  and  _308
REMARK  124  A    between atoms: _308  and  _309
REMARK  125  A    between atoms: _308  and  _311
REMARK  126  A    between atoms: _311  and  _312
REMARK  127  A    between atoms: _312  and  _313
REMARK  128  A    between atoms: _316  and  _318
REMARK  129  A    between atoms: _318  and  _319
REMARK  130  A    between atoms: _318  and  _321
REMARK  131  A    between atoms: _321  and  _322
REMARK  132  A    between atoms: _322  and  _323
REMARK  133  A    between atoms: _328  and  _330
REMARK  134  A    between atoms: _330  and  _331
REMARK  135  A    between atoms: _330  and  _333
REMARK  136  A    between atoms: _333  and  _334
REMARK  137  A    between atoms: _336  and  _338
REMARK  138  A    between atoms: _338  and  _339
REMARK  139  A    between atoms: _338  and  _341
REMARK  140  A    between atoms: _341  and  _342
REMARK  141  A    between atoms: _348  and  _350
REMARK  142  A    between atoms: _350  and  _351
REMARK  143  A    between atoms: _350  and  _353
REMARK  144  A    between atoms: _356  and  _358
REMARK  145  A    between atoms: _358  and  _359
REMARK  146  A    between atoms: _358  and  _361
REMARK  147  A    between atoms: _361  and  _362
REMARK  148  A    between atoms: _365  and  _367
REMARK  149  A    between atoms: _367  and  _368
REMARK  150  A    between atoms: _367  and  _370
REMARK  151  A    between atoms: _370  and  _371
REMARK  152  A    between atoms: _374  and  _376
REMARK  153  A    between atoms: _376  and  _377
REMARK  154  A    between atoms: _376  and  _379
REMARK  155  A    between atoms: _379  and  _380
REMARK  156  A    between atoms: _383  and  _385
REMARK  157  A    between atoms: _385  and  _386
REMARK  158  A    between atoms: _385  and  _388
REMARK  159  A    between atoms: _388  and  _389
REMARK  160  A    between atoms: _392  and  _394
REMARK  161  A    between atoms: _394  and  _395
REMARK  162  A    between atoms: _394  and  _397
REMARK  163  A    between atoms: _397  and  _398
REMARK  164  A    between atoms: _403  and  _404
REMARK  165  A    between atoms: _406  and  _408
REMARK  166  A    between atoms: _408  and  _409
REMARK  167  A    between atoms: _408  and  _411
REMARK  168  A    between atoms: _411  and  _412
REMARK  169  A    between atoms: _417  and  _418
REMARK  170  A    between atoms: _420  and  _422
REMARK  171  A    between atoms: _422  and  _423
REMARK  172  A    between atoms: _422  and  _425
REMARK  173  A    between atoms: _425  and  _426
REMARK  174  A    between atoms: _429  and  _431
REMARK  175  A    between atoms: _431  and  _432
REMARK  176  A    between atoms: _431  and  _434
REMARK  177  A    between atoms: _434  and  _435
REMARK  178  A    between atoms: _435  and  _436
REMARK  179  A    between atoms: _441  and  _443
REMARK  180  A    between atoms: _443  and  _444
REMARK  181  A    between atoms: _443  and  _446
REMARK  182  A    between atoms: _449  and  _451
REMARK  183  A    between atoms: _451  and  _452
REMARK  184  A    between atoms: _451  and  _454
REMARK  185  A    between atoms: _454  and  _455
REMARK  186  A    between atoms: _458  and  _460
REMARK  187  A    between atoms: _460  and  _461
REMARK  188  A    between atoms: _460  and  _463
REMARK  189  A    between atoms: _463  and  _464
REMARK  190  A    between atoms: _466  and  _468
REMARK  191  A    between atoms: _468  and  _469
REMARK  192  A    between atoms: _471  and  _473
REMARK  193  A    between atoms: _473  and  _474
REMARK  194  A    between atoms: _473  and  _476
REMARK  195  A    between atoms: _476  and  _477
REMARK  196  A    between atoms: _477  and  _772
REMARK  197  A    between atoms: _478  and  _480
REMARK  198  A    between atoms: _480  and  _481
REMARK  199  A    between atoms: _480  and  _483
REMARK  200  A    between atoms: _483  and  _484
REMARK  201  A    between atoms: _489  and  _490
REMARK  202  A    between atoms: _492  and  _494
REMARK  203  A    between atoms: _494  and  _495
REMARK  204  A    between atoms: _494  and  _497
REMARK  205  A    between atoms: _497  and  _498
REMARK  206  A    between atoms: _498  and  _499
REMARK  207  A    between atoms: _504  and  _506
REMARK  208  A    between atoms: _506  and  _507
REMARK  209  A    between atoms: _506  and  _509
REMARK  210  A    between atoms: _509  and  _510
REMARK  211  A    between atoms: _510  and  _511
REMARK  212  A    between atoms: _516  and  _518
REMARK  213  A    between atoms: _518  and  _519
REMARK  214  A    between atoms: _518  and  _521
REMARK  215  A    between atoms: _521  and  _522
REMARK  216  A    between atoms: _527  and  _528
REMARK  217  A    between atoms: _530  and  _532
REMARK  218  A    between atoms: _532  and  _533
REMARK  219  A    between atoms: _536  and  _538
REMARK  220  A    between atoms: _538  and  _539
REMARK  221  A    between atoms: _538  and  _541
REMARK  222  A    between atoms: _541  and  _542
REMARK  223  A    between atoms: _547  and  _548
REMARK  224  A    between atoms: _550  and  _552
REMARK  225  A    between atoms: _552  and  _553
REMARK  226  A    between atoms: _552  and  _555
REMARK  227  A    between atoms: _555  and  _556
REMARK  228  A    between atoms: _561  and  _562
REMARK  229  A    between atoms: _564  and  _566
REMARK  230  A    between atoms: _566  and  _567
REMARK  231  A    between atoms: _566  and  _569
REMARK  232  A    between atoms: _569  and  _570
REMARK  233  A    between atoms: _573  and  _575
REMARK  234  A    between atoms: _575  and  _576
REMARK  235  A    between atoms: _575  and  _578
REMARK  236  A    between atoms: _578  and  _579
REMARK  237  A    between atoms: _589  and  _591
REMARK  238  A    between atoms: _591  and  _592
REMARK  239  A    between atoms: _595  and  _597
REMARK  240  A    between atoms: _597  and  _598
REMARK  241  A    between atoms: _601  and  _603
REMARK  242  A    between atoms: _603  and  _604
REMARK  243  A    between atoms: _603  and  _606
REMARK  244  A    between atoms: _606  and  _607
REMARK  245  A    between atoms: _610  and  _612
REMARK  246  A    between atoms: _612  and  _613
REMARK  247  A    between atoms: _612  and  _615
REMARK  248  A    between atoms: _615  and  _616
REMARK  249  A    between atoms: _619  and  _621
REMARK  250  A    between atoms: _621  and  _622
REMARK  251  A    between atoms: _621  and  _624
REMARK  252  A    between atoms: _624  and  _625
REMARK  253  A    between atoms: _628  and  _630
REMARK  254  A    between atoms: _630  and  _631
REMARK  255  A    between atoms: _630  and  _633
REMARK  256  A    between atoms: _633  and  _634
REMARK  257  A    between atoms: _634  and  _635
REMARK  258  A    between atoms: _635  and  _636
REMARK  259  A    between atoms: _636  and  _637
REMARK  260  A    between atoms: _641  and  _643
REMARK  261  A    between atoms: _643  and  _644
REMARK  262  A    between atoms: _643  and  _646
REMARK  263  A    between atoms: _646  and  _647
REMARK  264  A    between atoms: _652  and  _654
REMARK  265  A    between atoms: _654  and  _655
REMARK  266  A    between atoms: _654  and  _657
REMARK  267  A    between atoms: _657  and  _658
REMARK  268  A    between atoms: _658  and  _659
REMARK  269  A    between atoms: _659  and  _660
REMARK  270  A    between atoms: _660  and  _661
REMARK  271  A    between atoms: _665  and  _667
REMARK  272  A    between atoms: _667  and  _668
REMARK  273  A    between atoms: _667  and  _670
REMARK  274  A    between atoms: _670  and  _671
REMARK  275  A    between atoms: _681  and  _683
REMARK  276  A    between atoms: _683  and  _684
REMARK  277  A    between atoms: _687  and  _689
REMARK  278  A    between atoms: _689  and  _690
REMARK  279  A    between atoms: _692  and  _694
REMARK  280  A    between atoms: _694  and  _695
REMARK  281  A    between atoms: _694  and  _697
REMARK  282  A    between atoms: _697  and  _698
REMARK  283  A    between atoms: _698  and  _699
REMARK  284  A    between atoms: _702  and  _704
REMARK  285  A    between atoms: _704  and  _705
REMARK  286  A    between atoms: _708  and  _710
REMARK  287  A    between atoms: _710  and  _711
REMARK  288  A    between atoms: _710  and  _713
REMARK  289  A    between atoms: _713  and  _714
REMARK  290  A    between atoms: _714  and  _715
REMARK  291  A    between atoms: _715  and  _716
REMARK  292  A    between atoms: _725  and  _727
REMARK  293  A    between atoms: _727  and  _728
REMARK  294  A    between atoms: _727  and  _730
REMARK  295  A    between atoms: _730  and  _731
REMARK  296  A    between atoms: _734  and  _736
REMARK  297  A    between atoms: _736  and  _737
REMARK  298  A    between atoms: _736  and  _739
REMARK  299  A    between atoms: _739  and  _740
REMARK  300  A    between atoms: _745  and  _746
REMARK  301  A    between atoms: _748  and  _750
REMARK  302  A    between atoms: _750  and  _751
REMARK  303  A    between atoms: _750  and  _753
REMARK  304  A    between atoms: _753  and  _754
REMARK  305  A    between atoms: _757  and  _759
REMARK  306  A    between atoms: _759  and  _760
REMARK  307  A    between atoms: _759  and  _762
REMARK  308  A    between atoms: _762  and  _763
REMARK  309  A    between atoms: _766  and  _768
REMARK  310  A    between atoms: _768  and  _769
REMARK  311  A    between atoms: _768  and  _771
REMARK  312  A    between atoms: _771  and  _772
REMARK  313  A    between atoms: _773  and  _775
REMARK  314  A    between atoms: _775  and  _776
REMARK  315  A    between atoms: _775  and  _778
REMARK  316  A    between atoms: _781  and  _783
REMARK  317  A    between atoms: _783  and  _784
REMARK  318  A    between atoms: _783  and  _786
REMARK  319  A    between atoms: _786  and  _787
REMARK  320  A    between atoms: _787  and  _788
REMARK  321  A    between atoms: _791  and  _793
REMARK  322  A    between atoms: _793  and  _794
REMARK  323  A    between atoms: _793  and  _796
REMARK  324  A    between atoms: _796  and  _797
REMARK  325  A    between atoms: _807  and  _809
REMARK  326  A    between atoms: _809  and  _810
REMARK  327  A    between atoms: _809  and  _812
REMARK  328  A    between atoms: _812  and  _813
REMARK  329  A    between atoms: _816  and  _818
REMARK  330  A    between atoms: _818  and  _819
REMARK  331  A    between atoms: _818  and  _821
REMARK  332  A    between atoms: _821  and  _822
REMARK  333  A    between atoms: _822  and  _823
REMARK  334  A    between atoms: _823  and  _824
REMARK  335  A    between atoms: _833  and  _835
REMARK  336  A    between atoms: _835  and  _836
REMARK  337  A    between atoms: _835  and  _838
REMARK  338  A    between atoms: _838  and  _839
REMARK  339  A    between atoms: _844  and  _845
REMARK                            x       y       z     vdW  Elec       q    Type
REMARK                         _______ _______ _______ _____ _____    ______ ____
ROOT
ATOM      1  O   HOH     1      43.317  52.056   3.559  0.00  0.00    +0.000 OA
ENDROOT
TORSDOF 0
REMARK  Name = ../refined-set-2016/1fzo/1fzo_pocket.pdb
REMARK  339 active torsions:
REMARK  status: ('A' for Active; 'I' for Inactive)
REMARK    1  A    between atoms: _1  and  _3
REMARK    2  A    between atoms: _3  and  _4
REMARK    3  A    between atoms: _3  and  _6
REMARK    4  A    between atoms: _6  and  _7
REMARK    5  A    between atoms: _10  and  _12
REMARK    6  A    between atoms: _12  and  _13
REMARK    7  A    between atoms: _12  and  _15
REMARK    8  A    between atoms: _15  and  _16
REMARK    9  A    between atoms: _16  and  _17
REMARK   10  A    between atoms: _17  and  _18
REMARK   11  A    between atoms: _27  and  _29
REMARK   12  A    between atoms: _29  and  _30
REMARK   13  A    between atoms: _29  and  _32
REMARK   14  A    between atoms: _32  and  _33
REMARK   15  A    between atoms: _38  and  _39
REMARK   16  A    between atoms: _41  and  _43
REMARK   17  A    between atoms: _43  and  _44
REMARK   18  A    between atoms: _43  and  _46
REMARK   19  A    between atoms: _46  and  _47
REMARK   20  A    between atoms: _53  and  _55
REMARK   21  A    between atoms: _55  and  _56
REMARK   22  A    between atoms: _55  and  _58
REMARK   23  A    between atoms: _61  and  _63
REMARK   24  A    between atoms: _63  and  _64
REMARK   25  A    between atoms: _63  and  _66
REMARK   26  A    between atoms: _66  and  _67
REMARK   27  A    between atoms: _70  and  _72
REMARK   28  A    between atoms: _72  and  _73
REMARK   29  A    between atoms: _72  and  _75
REMARK   30  A    between atoms: _75  and  _76
REMARK   31  A    between atoms: _82  and  _84
REMARK   32  A    between atoms: _84  and  _85
REMARK   33  A    between atoms: _84  and  _87
REMARK   34  A    between atoms: _87  and  _88
REMARK   35  A    between atoms: _91  and  _93
REMARK   36  A    between atoms: _93  and  _94
REMARK   37  A    between atoms: _93  and  _96
REMARK   38  A    between atoms: _96  and  _97
REMARK   39  A    between atoms: _99  and  _101
REMARK   40  A    between atoms: _101  and  _102
REMARK   41  A    between atoms: _101  and  _104
REMARK   42  A    between atoms: _107  and  _109
REMARK   43  A    between atoms: _109  and  _110
REMARK   44  A    between atoms: _112  and  _114
REMARK   45  A    between atoms: _114  and  _115
REMARK   46  A    between atoms: _114  and  _117
REMARK   47  A    between atoms: _120  and  _122
REMARK   48  A    between atoms: _122  and  _123
REMARK   49  A    between atoms: _122  and  _125
REMARK   50  A    between atoms: _125  and  _126
REMARK   51  A    between atoms: _132  and  _134
REMARK   52  A    between atoms: _134  and  _135
REMARK   53  A    between atoms: _134  and  _137
REMARK   54  A    between atoms: _140  and  _142
REMARK   55  A    between atoms: _142  and  _143
REMARK   56  A    between atoms: _142  and  _145
REMARK   57  A    between atoms: _145  and  _146
REMARK   58  A    between atoms: _151  and  _152
REMARK   59  A    between atoms: _154  and  _156
REMARK   60  A    between atoms: _156  and  _157
REMARK   61  A    between atoms: _156  and  _159
REMARK   62  A    between atoms: _159  and  _160
REMARK   63  A    between atoms: _160  and  _161
REMARK   64  A    between atoms: _163  and  _165
REMARK   65  A    between atoms: _165  and  _166
REMARK   66  A    between atoms: _165  and  _168
REMARK   67  A    between atoms: _168  and  _169
REMARK   68  A    between atoms: _169  and  _170
REMARK   69  A    between atoms: _173  and  _175
REMARK   70  A    between atoms: _175  and  _176
REMARK   71  A    between atoms: _175  and  _178
REMARK   72  A    between atoms: _178  and  _179
REMARK   73  A    between atoms: _179  and  _180
REMARK   74  A    between atoms: _183  and  _185
REMARK   75  A    between atoms: _185  and  _186
REMARK   76  A    between atoms: _185  and  _188
REMARK   77  A    between atoms: _188  and  _189
REMARK   78  A    between atoms: _194  and  _195
REMARK   79  A    between atoms: _197  and  _199
REMARK   80  A    between atoms: _199  and  _200
REMARK   81  A    between atoms: _199  and  _202
REMARK   82  A    between atoms: _202  and  _203
REMARK   83  A    between atoms: _213  and  _215
REMARK   84  A    between atoms: _215  and  _216
REMARK   85  A    between atoms: _215  and  _218
REMARK   86  A    between atoms: _218  and  _219
REMARK   87  A    between atoms: _219  and  _220
REMARK   88  A    between atoms: _223  and  _225
REMARK   89  A    between atoms: _225  and  _226
REMARK   90  A    between atoms: _225  and  _228
REMARK   91  A    between atoms: _228  and  _229
REMARK   92  A    between atoms: _229  and  _230
REMARK   93  A    between atoms: _230  and  _231
REMARK   94  A    between atoms: _240  and  _242
REMARK   95  A    between atoms: _242  and  _243
REMARK   96  A    between atoms: _242  and  _245
REMARK   97  A    between atoms: _245  and  _246
REMARK   98  A    between atoms: _246  and  _247
REMARK   99  A    between atoms: _250  and  _252
REMARK  100  A    between atoms: _252  and  _253
REMARK  101  A    between atoms: _252  and  _255
REMARK  102  A    between atoms: _255  and  _256
REMARK  103  A    between atoms: _259  and  _261
REMARK  104  A    between atoms: _261  and  _262
REMARK  105  A    between atoms: _261  and  _264
REMARK  106  A    between atoms: _264  and  _265
REMARK  107  A    between atoms: _265  and  _266
REMARK  108  A    between atoms: _271  and  _273
REMARK  109  A    between atoms: _273  and  _274
REMARK  110  A    between atoms: _273  and  _276
REMARK  111  A    between atoms: _276  and  _277
REMARK  112  A    between atoms: _277  and  _278
REMARK  113  A    between atoms: _278  and  _279
REMARK  114  A    between atoms: _279  and  _280
REMARK  115  A    between atoms: _284  and  _286
REMARK  116  A    between atoms: _286  and  _287
REMARK  117  A    between atoms: _290  and  _292
REMARK  118  A    between atoms: _292  and  _293
REMARK  119  A    between atoms: _295  and  _297
REMARK  120  A    between atoms: _297  and  _298
REMARK  121  A    between atoms: _297  and  _300
REMARK  122  A    between atoms: _300  and  _301
REMARK  123  A    between atoms: _306  and  _308
REMARK  124  A    between atoms: _308  and  _309
REMARK  125  A    between atoms: _308  and  _311
REMARK  126  A    between atoms: _311  and  _312
REMARK  127  A    between atoms: _312  and  _313
REMARK  128  A    between atoms: _316  and  _318
REMARK  129  A    between atoms: _318  and  _319
REMARK  130  A    between atoms: _318  and  _321
REMARK  131  A    between atoms: _321  and  _322
REMARK  132  A    between atoms: _322  and  _323
REMARK  133  A    between atoms: _328  and  _330
REMARK  134  A    between atoms: _330  and  _331
REMARK  135  A    between atoms: _330  and  _333
REMARK  136  A    between atoms: _333  and  _334
REMARK  137  A    between atoms: _336  and  _338
REMARK  138  A    between atoms: _338  and  _339
REMARK  139  A    between atoms: _338  and  _341
REMARK  140  A    between atoms: _341  and  _342
REMARK  141  A    between atoms: _348  and  _350
REMARK  142  A    between atoms: _350  and  _351
REMARK  143  A    between atoms: _350  and  _353
REMARK  144  A    between atoms: _356  and  _358
REMARK  145  A    between atoms: _358  and  _359
REMARK  146  A    between atoms: _358  and  _361
REMARK  147  A    between atoms: _361  and  _362
REMARK  148  A    between atoms: _365  and  _367
REMARK  149  A    between atoms: _367  and  _368
REMARK  150  A    between atoms: _367  and  _370
REMARK  151  A    between atoms: _370  and  _371
REMARK  152  A    between atoms: _374  and  _376
REMARK  153  A    between atoms: _376  and  _377
REMARK  154  A    between atoms: _376  and  _379
REMARK  155  A    between atoms: _379  and  _380
REMARK  156  A    between atoms: _383  and  _385
REMARK  157  A    between atoms: _385  and  _386
REMARK  158  A    between atoms: _385  and  _388
REMARK  159  A    between atoms: _388  and  _389
REMARK  160  A    between atoms: _392  and  _394
REMARK  161  A    between atoms: _394  and  _395
REMARK  162  A    between atoms: _394  and  _397
REMARK  163  A    between atoms: _397  and  _398
REMARK  164  A    between atoms: _403  and  _404
REMARK  165  A    between atoms: _406  and  _408
REMARK  166  A    between atoms: _408  and  _409
REMARK  167  A    between atoms: _408  and  _411
REMARK  168  A    between atoms: _411  and  _412
REMARK  169  A    between atoms: _417  and  _418
REMARK  170  A    between atoms: _420  and  _422
REMARK  171  A    between atoms: _422  and  _423
REMARK  172  A    between atoms: _422  and  _425
REMARK  173  A    between atoms: _425  and  _426
REMARK  174  A    between atoms: _429  and  _431
REMARK  175  A    between atoms: _431  and  _432
REMARK  176  A    between atoms: _431  and  _434
REMARK  177  A    between atoms: _434  and  _435
REMARK  178  A    between atoms: _435  and  _436
REMARK  179  A    between atoms: _441  and  _443
REMARK  180  A    between atoms: _443  and  _444
REMARK  181  A    between atoms: _443  and  _446
REMARK  182  A    between atoms: _449  and  _451
REMARK  183  A    between atoms: _451  and  _452
REMARK  184  A    between atoms: _451  and  _454
REMARK  185  A    between atoms: _454  and  _455
REMARK  186  A    between atoms: _458  and  _460
REMARK  187  A    between atoms: _460  and  _461
REMARK  188  A    between atoms: _460  and  _463
REMARK  189  A    between atoms: _463  and  _464
REMARK  190  A    between atoms: _466  and  _468
REMARK  191  A    between atoms: _468  and  _469
REMARK  192  A    between atoms: _471  and  _473
REMARK  193  A    between atoms: _473  and  _474
REMARK  194  A    between atoms: _473  and  _476
REMARK  195  A    between atoms: _476  and  _477
REMARK  196  A    between atoms: _477  and  _772
REMARK  197  A    between atoms: _478  and  _480
REMARK  198  A    between atoms: _480  and  _481
REMARK  199  A    between atoms: _480  and  _483
REMARK  200  A    between atoms: _483  and  _484
REMARK  201  A    between atoms: _489  and  _490
REMARK  202  A    between atoms: _492  and  _494
REMARK  203  A    between atoms: _494  and  _495
REMARK  204  A    between atoms: _494  and  _497
REMARK  205  A    between atoms: _497  and  _498
REMARK  206  A    between atoms: _498  and  _499
REMARK  207  A    between atoms: _504  and  _506
REMARK  208  A    between atoms: _506  and  _507
REMARK  209  A    between atoms: _506  and  _509
REMARK  210  A    between atoms: _509  and  _510
REMARK  211  A    between atoms: _510  and  _511
REMARK  212  A    between atoms: _516  and  _518
REMARK  213  A    between atoms: _518  and  _519
REMARK  214  A    between atoms: _518  and  _521
REMARK  215  A    between atoms: _521  and  _522
REMARK  216  A    between atoms: _527  and  _528
REMARK  217  A    between atoms: _530  and  _532
REMARK  218  A    between atoms: _532  and  _533
REMARK  219  A    between atoms: _536  and  _538
REMARK  220  A    between atoms: _538  and  _539
REMARK  221  A    between atoms: _538  and  _541
REMARK  222  A    between atoms: _541  and  _542
REMARK  223  A    between atoms: _547  and  _548
REMARK  224  A    between atoms: _550  and  _552
REMARK  225  A    between atoms: _552  and  _553
REMARK  226  A    between atoms: _552  and  _555
REMARK  227  A    between atoms: _555  and  _556
REMARK  228  A    between atoms: _561  and  _562
REMARK  229  A    between atoms: _564  and  _566
REMARK  230  A    between atoms: _566  and  _567
REMARK  231  A    between atoms: _566  and  _569
REMARK  232  A    between atoms: _569  and  _570
REMARK  233  A    between atoms: _573  and  _575
REMARK  234  A    between atoms: _575  and  _576
REMARK  235  A    between atoms: _575  and  _578
REMARK  236  A    between atoms: _578  and  _579
REMARK  237  A    between atoms: _589  and  _591
REMARK  238  A    between atoms: _591  and  _592
REMARK  239  A    between atoms: _595  and  _597
REMARK  240  A    between atoms: _597  and  _598
REMARK  241  A    between atoms: _601  and  _603
REMARK  242  A    between atoms: _603  and  _604
REMARK  243  A    between atoms: _603  and  _606
REMARK  244  A    between atoms: _606  and  _607
REMARK  245  A    between atoms: _610  and  _612
REMARK  246  A    between atoms: _612  and  _613
REMARK  247  A    between atoms: _612  and  _615
REMARK  248  A    between atoms: _615  and  _616
REMARK  249  A    between atoms: _619  and  _621
REMARK  250  A    between atoms: _621  and  _622
REMARK  251  A    between atoms: _621  and  _624
REMARK  252  A    between atoms: _624  and  _625
REMARK  253  A    between atoms: _628  and  _630
REMARK  254  A    between atoms: _630  and  _631
REMARK  255  A    between atoms: _630  and  _633
REMARK  256  A    between atoms: _633  and  _634
REMARK  257  A    between atoms: _634  and  _635
REMARK  258  A    between atoms: _635  and  _636
REMARK  259  A    between atoms: _636  and  _637
REMARK  260  A    between atoms: _641  and  _643
REMARK  261  A    between atoms: _643  and  _644
REMARK  262  A    between atoms: _643  and  _646
REMARK  263  A    between atoms: _646  and  _647
REMARK  264  A    between atoms: _652  and  _654
REMARK  265  A    between atoms: _654  and  _655
REMARK  266  A    between atoms: _654  and  _657
REMARK  267  A    between atoms: _657  and  _658
REMARK  268  A    between atoms: _658  and  _659
REMARK  269  A    between atoms: _659  and  _660
REMARK  270  A    between atoms: _660  and  _661
REMARK  271  A    between atoms: _665  and  _667
REMARK  272  A    between atoms: _667  and  _668
REMARK  273  A    between atoms: _667  and  _670
REMARK  274  A    between atoms: _670  and  _671
REMARK  275  A    between atoms: _681  and  _683
REMARK  276  A    between atoms: _683  and  _684
REMARK  277  A    between atoms: _687  and  _689
REMARK  278  A    between atoms: _689  and  _690
REMARK  279  A    between atoms: _692  and  _694
REMARK  280  A    between atoms: _694  and  _695
REMARK  281  A    between atoms: _694  and  _697
REMARK  282  A    between atoms: _697  and  _698
REMARK  283  A    between atoms: _698  and  _699
REMARK  284  A    between atoms: _702  and  _704
REMARK  285  A    between atoms: _704  and  _705
REMARK  286  A    between atoms: _708  and  _710
REMARK  287  A    between atoms: _710  and  _711
REMARK  288  A    between atoms: _710  and  _713
REMARK  289  A    between atoms: _713  and  _714
REMARK  290  A    between atoms: _714  and  _715
REMARK  291  A    between atoms: _715  and  _716
REMARK  292  A    between atoms: _725  and  _727
REMARK  293  A    between atoms: _727  and  _728
REMARK  294  A    between atoms: _727  and  _730
REMARK  295  A    between atoms: _730  and  _731
REMARK  296  A    between atoms: _734  and  _736
REMARK  297  A    between atoms: _736  and  _737
REMARK  298  A    between atoms: _736  and  _739
REMARK  299  A    between atoms: _739  and  _740
REMARK  300  A    between atoms: _745  and  _746
REMARK  301  A    between atoms: _748  and  _750
REMARK  302  A    between atoms: _750  and  _751
REMARK  303  A    between atoms: _750  and  _753
REMARK  304  A    between atoms: _753  and  _754
REMARK  305  A    between atoms: _757  and  _759
REMARK  306  A    between atoms: _759  and  _760
REMARK  307  A    between atoms: _759  and  _762
REMARK  308  A    between atoms: _762  and  _763
REMARK  309  A    between atoms: _766  and  _768
REMARK  310  A    between atoms: _768  and  _769
REMARK  311  A    between atoms: _768  and  _771
REMARK  312  A    between atoms: _771  and  _772
REMARK  313  A    between atoms: _773  and  _775
REMARK  314  A    between atoms: _775  and  _776
REMARK  315  A    between atoms: _775  and  _778
REMARK  316  A    between atoms: _781  and  _783
REMARK  317  A    between atoms: _783  and  _784
REMARK  318  A    between atoms: _783  and  _786
REMARK  319  A    between atoms: _786  and  _787
REMARK  320  A    between atoms: _787  and  _788
REMARK  321  A    between atoms: _791  and  _793
REMARK  322  A    between atoms: _793  and  _794
REMARK  323  A    between atoms: _793  and  _796
REMARK  324  A    between atoms: _796  and  _797
REMARK  325  A    between atoms: _807  and  _809
REMARK  326  A    between atoms: _809  and  _810
REMARK  327  A    between atoms: _809  and  _812
REMARK  328  A    between atoms: _812  and  _813
REMARK  329  A    between atoms: _816  and  _818
REMARK  330  A    between atoms: _818  and  _819
REMARK  331  A    between atoms: _818  and  _821
REMARK  332  A    between atoms: _821  and  _822
REMARK  333  A    between atoms: _822  and  _823
REMARK  334  A    between atoms: _823  and  _824
REMARK  335  A    between atoms: _833  and  _835
REMARK  336  A    between atoms: _835  and  _836
REMARK  337  A    between atoms: _835  and  _838
REMARK  338  A    between atoms: _838  and  _839
REMARK  339  A    between atoms: _844  and  _845
REMARK                            x       y       z     vdW  Elec       q    Type
REMARK                         _______ _______ _______ _____ _____    ______ ____
ROOT
ATOM      1  O   HOH     1      41.956  57.417   3.169  0.00  0.00    +0.000 OA
ENDROOT
TORSDOF 0
REMARK  Name = ../refined-set-2016/1fzo/1fzo_pocket.pdb
REMARK  339 active torsions:
REMARK  status: ('A' for Active; 'I' for Inactive)
REMARK    1  A    between atoms: _1  and  _3
REMARK    2  A    between atoms: _3  and  _4
REMARK    3  A    between atoms: _3  and  _6
REMARK    4  A    between atoms: _6  and  _7
REMARK    5  A    between atoms: _10  and  _12
REMARK    6  A    between atoms: _12  and  _13
REMARK    7  A    between atoms: _12  and  _15
REMARK    8  A    between atoms: _15  and  _16
REMARK    9  A    between atoms: _16  and  _17
REMARK   10  A    between atoms: _17  and  _18
REMARK   11  A    between atoms: _27  and  _29
REMARK   12  A    between atoms: _29  and  _30
REMARK   13  A    between atoms: _29  and  _32
REMARK   14  A    between atoms: _32  and  _33
REMARK   15  A    between atoms: _38  and  _39
REMARK   16  A    between atoms: _41  and  _43
REMARK   17  A    between atoms: _43  and  _44
REMARK   18  A    between atoms: _43  and  _46
REMARK   19  A    between atoms: _46  and  _47
REMARK   20  A    between atoms: _53  and  _55
REMARK   21  A    between atoms: _55  and  _56
REMARK   22  A    between atoms: _55  and  _58
REMARK   23  A    between atoms: _61  and  _63
REMARK   24  A    between atoms: _63  and  _64
REMARK   25  A    between atoms: _63  and  _66
REMARK   26  A    between atoms: _66  and  _67
REMARK   27  A    between atoms: _70  and  _72
REMARK   28  A    between atoms: _72  and  _73
REMARK   29  A    between atoms: _72  and  _75
REMARK   30  A    between atoms: _75  and  _76
REMARK   31  A    between atoms: _82  and  _84
REMARK   32  A    between atoms: _84  and  _85
REMARK   33  A    between atoms: _84  and  _87
REMARK   34  A    between atoms: _87  and  _88
REMARK   35  A    between atoms: _91  and  _93
REMARK   36  A    between atoms: _93  and  _94
REMARK   37  A    between atoms: _93  and  _96
REMARK   38  A    between atoms: _96  and  _97
REMARK   39  A    between atoms: _99  and  _101
REMARK   40  A    between atoms: _101  and  _102
REMARK   41  A    between atoms: _101  and  _104
REMARK   42  A    between atoms: _107  and  _109
REMARK   43  A    between atoms: _109  and  _110
REMARK   44  A    between atoms: _112  and  _114
REMARK   45  A    between atoms: _114  and  _115
REMARK   46  A    between atoms: _114  and  _117
REMARK   47  A    between atoms: _120  and  _122
REMARK   48  A    between atoms: _122  and  _123
REMARK   49  A    between atoms: _122  and  _125
REMARK   50  A    between atoms: _125  and  _126
REMARK   51  A    between atoms: _132  and  _134
REMARK   52  A    between atoms: _134  and  _135
REMARK   53  A    between atoms: _134  and  _137
REMARK   54  A    between atoms: _140  and  _142
REMARK   55  A    between atoms: _142  and  _143
REMARK   56  A    between atoms: _142  and  _145
REMARK   57  A    between atoms: _145  and  _146
REMARK   58  A    between atoms: _151  and  _152
REMARK   59  A    between atoms: _154  and  _156
REMARK   60  A    between atoms: _156  and  _157
REMARK   61  A    between atoms: _156  and  _159
REMARK   62  A    between atoms: _159  and  _160
REMARK   63  A    between atoms: _160  and  _161
REMARK   64  A    between atoms: _163  and  _165
REMARK   65  A    between atoms: _165  and  _166
REMARK   66  A    between atoms: _165  and  _168
REMARK   67  A    between atoms: _168  and  _169
REMARK   68  A    between atoms: _169  and  _170
REMARK   69  A    between atoms: _173  and  _175
REMARK   70  A    between atoms: _175  and  _176
REMARK   71  A    between atoms: _175  and  _178
REMARK   72  A    between atoms: _178  and  _179
REMARK   73  A    between atoms: _179  and  _180
REMARK   74  A    between atoms: _183  and  _185
REMARK   75  A    between atoms: _185  and  _186
REMARK   76  A    between atoms: _185  and  _188
REMARK   77  A    between atoms: _188  and  _189
REMARK   78  A    between atoms: _194  and  _195
REMARK   79  A    between atoms: _197  and  _199
REMARK   80  A    between atoms: _199  and  _200
REMARK   81  A    between atoms: _199  and  _202
REMARK   82  A    between atoms: _202  and  _203
REMARK   83  A    between atoms: _213  and  _215
REMARK   84  A    between atoms: _215  and  _216
REMARK   85  A    between atoms: _215  and  _218
REMARK   86  A    between atoms: _218  and  _219
REMARK   87  A    between atoms: _219  and  _220
REMARK   88  A    between atoms: _223  and  _225
REMARK   89  A    between atoms: _225  and  _226
REMARK   90  A    between atoms: _225  and  _228
REMARK   91  A    between atoms: _228  and  _229
REMARK   92  A    between atoms: _229  and  _230
REMARK   93  A    between atoms: _230  and  _231
REMARK   94  A    between atoms: _240  and  _242
REMARK   95  A    between atoms: _242  and  _243
REMARK   96  A    between atoms: _242  and  _245
REMARK   97  A    between atoms: _245  and  _246
REMARK   98  A    between atoms: _246  and  _247
REMARK   99  A    between atoms: _250  and  _252
REMARK  100  A    between atoms: _252  and  _253
REMARK  101  A    between atoms: _252  and  _255
REMARK  102  A    between atoms: _255  and  _256
REMARK  103  A    between atoms: _259  and  _261
REMARK  104  A    between atoms: _261  and  _262
REMARK  105  A    between atoms: _261  and  _264
REMARK  106  A    between atoms: _264  and  _265
REMARK  107  A    between atoms: _265  and  _266
REMARK  108  A    between atoms: _271  and  _273
REMARK  109  A    between atoms: _273  and  _274
REMARK  110  A    between atoms: _273  and  _276
REMARK  111  A    between atoms: _276  and  _277
REMARK  112  A    between atoms: _277  and  _278
REMARK  113  A    between atoms: _278  and  _279
REMARK  114  A    between atoms: _279  and  _280
REMARK  115  A    between atoms: _284  and  _286
REMARK  116  A    between atoms: _286  and  _287
REMARK  117  A    between atoms: _290  and  _292
REMARK  118  A    between atoms: _292  and  _293
REMARK  119  A    between atoms: _295  and  _297
REMARK  120  A    between atoms: _297  and  _298
REMARK  121  A    between atoms: _297  and  _300
REMARK  122  A    between atoms: _300  and  _301
REMARK  123  A    between atoms: _306  and  _308
REMARK  124  A    between atoms: _308  and  _309
REMARK  125  A    between atoms: _308  and  _311
REMARK  126  A    between atoms: _311  and  _312
REMARK  127  A    between atoms: _312  and  _313
REMARK  128  A    between atoms: _316  and  _318
REMARK  129  A    between atoms: _318  and  _319
REMARK  130  A    between atoms: _318  and  _321
REMARK  131  A    between atoms: _321  and  _322
REMARK  132  A    between atoms: _322  and  _323
REMARK  133  A    between atoms: _328  and  _330
REMARK  134  A    between atoms: _330  and  _331
REMARK  135  A    between atoms: _330  and  _333
REMARK  136  A    between atoms: _333  and  _334
REMARK  137  A    between atoms: _336  and  _338
REMARK  138  A    between atoms: _338  and  _339
REMARK  139  A    between atoms: _338  and  _341
REMARK  140  A    between atoms: _341  and  _342
REMARK  141  A    between atoms: _348  and  _350
REMARK  142  A    between atoms: _350  and  _351
REMARK  143  A    between atoms: _350  and  _353
REMARK  144  A    between atoms: _356  and  _358
REMARK  145  A    between atoms: _358  and  _359
REMARK  146  A    between atoms: _358  and  _361
REMARK  147  A    between atoms: _361  and  _362
REMARK  148  A    between atoms: _365  and  _367
REMARK  149  A    between atoms: _367  and  _368
REMARK  150  A    between atoms: _367  and  _370
REMARK  151  A    between atoms: _370  and  _371
REMARK  152  A    between atoms: _374  and  _376
REMARK  153  A    between atoms: _376  and  _377
REMARK  154  A    between atoms: _376  and  _379
REMARK  155  A    between atoms: _379  and  _380
REMARK  156  A    between atoms: _383  and  _385
REMARK  157  A    between atoms: _385  and  _386
REMARK  158  A    between atoms: _385  and  _388
REMARK  159  A    between atoms: _388  and  _389
REMARK  160  A    between atoms: _392  and  _394
REMARK  161  A    between atoms: _394  and  _395
REMARK  162  A    between atoms: _394  and  _397
REMARK  163  A    between atoms: _397  and  _398
REMARK  164  A    between atoms: _403  and  _404
REMARK  165  A    between atoms: _406  and  _408
REMARK  166  A    between atoms: _408  and  _409
REMARK  167  A    between atoms: _408  and  _411
REMARK  168  A    between atoms: _411  and  _412
REMARK  169  A    between atoms: _417  and  _418
REMARK  170  A    between atoms: _420  and  _422
REMARK  171  A    between atoms: _422  and  _423
REMARK  172  A    between atoms: _422  and  _425
REMARK  173  A    between atoms: _425  and  _426
REMARK  174  A    between atoms: _429  and  _431
REMARK  175  A    between atoms: _431  and  _432
REMARK  176  A    between atoms: _431  and  _434
REMARK  177  A    between atoms: _434  and  _435
REMARK  178  A    between atoms: _435  and  _436
REMARK  179  A    between atoms: _441  and  _443
REMARK  180  A    between atoms: _443  and  _444
REMARK  181  A    between atoms: _443  and  _446
REMARK  182  A    between atoms: _449  and  _451
REMARK  183  A    between atoms: _451  and  _452
REMARK  184  A    between atoms: _451  and  _454
REMARK  185  A    between atoms: _454  and  _455
REMARK  186  A    between atoms: _458  and  _460
REMARK  187  A    between atoms: _460  and  _461
REMARK  188  A    between atoms: _460  and  _463
REMARK  189  A    between atoms: _463  and  _464
REMARK  190  A    between atoms: _466  and  _468
REMARK  191  A    between atoms: _468  and  _469
REMARK  192  A    between atoms: _471  and  _473
REMARK  193  A    between atoms: _473  and  _474
REMARK  194  A    between atoms: _473  and  _476
REMARK  195  A    between atoms: _476  and  _477
REMARK  196  A    between atoms: _477  and  _772
REMARK  197  A    between atoms: _478  and  _480
REMARK  198  A    between atoms: _480  and  _481
REMARK  199  A    between atoms: _480  and  _483
REMARK  200  A    between atoms: _483  and  _484
REMARK  201  A    between atoms: _489  and  _490
REMARK  202  A    between atoms: _492  and  _494
REMARK  203  A    between atoms: _494  and  _495
REMARK  204  A    between atoms: _494  and  _497
REMARK  205  A    between atoms: _497  and  _498
REMARK  206  A    between atoms: _498  and  _499
REMARK  207  A    between atoms: _504  and  _506
REMARK  208  A    between atoms: _506  and  _507
REMARK  209  A    between atoms: _506  and  _509
REMARK  210  A    between atoms: _509  and  _510
REMARK  211  A    between atoms: _510  and  _511
REMARK  212  A    between atoms: _516  and  _518
REMARK  213  A    between atoms: _518  and  _519
REMARK  214  A    between atoms: _518  and  _521
REMARK  215  A    between atoms: _521  and  _522
REMARK  216  A    between atoms: _527  and  _528
REMARK  217  A    between atoms: _530  and  _532
REMARK  218  A    between atoms: _532  and  _533
REMARK  219  A    between atoms: _536  and  _538
REMARK  220  A    between atoms: _538  and  _539
REMARK  221  A    between atoms: _538  and  _541
REMARK  222  A    between atoms: _541  and  _542
REMARK  223  A    between atoms: _547  and  _548
REMARK  224  A    between atoms: _550  and  _552
REMARK  225  A    between atoms: _552  and  _553
REMARK  226  A    between atoms: _552  and  _555
REMARK  227  A    between atoms: _555  and  _556
REMARK  228  A    between atoms: _561  and  _562
REMARK  229  A    between atoms: _564  and  _566
REMARK  230  A    between atoms: _566  and  _567
REMARK  231  A    between atoms: _566  and  _569
REMARK  232  A    between atoms: _569  and  _570
REMARK  233  A    between atoms: _573  and  _575
REMARK  234  A    between atoms: _575  and  _576
REMARK  235  A    between atoms: _575  and  _578
REMARK  236  A    between atoms: _578  and  _579
REMARK  237  A    between atoms: _589  and  _591
REMARK  238  A    between atoms: _591  and  _592
REMARK  239  A    between atoms: _595  and  _597
REMARK  240  A    between atoms: _597  and  _598
REMARK  241  A    between atoms: _601  and  _603
REMARK  242  A    between atoms: _603  and  _604
REMARK  243  A    between atoms: _603  and  _606
REMARK  244  A    between atoms: _606  and  _607
REMARK  245  A    between atoms: _610  and  _612
REMARK  246  A    between atoms: _612  and  _613
REMARK  247  A    between atoms: _612  and  _615
REMARK  248  A    between atoms: _615  and  _616
REMARK  249  A    between atoms: _619  and  _621
REMARK  250  A    between atoms: _621  and  _622
REMARK  251  A    between atoms: _621  and  _624
REMARK  252  A    between atoms: _624  and  _625
REMARK  253  A    between atoms: _628  and  _630
REMARK  254  A    between atoms: _630  and  _631
REMARK  255  A    between atoms: _630  and  _633
REMARK  256  A    between atoms: _633  and  _634
REMARK  257  A    between atoms: _634  and  _635
REMARK  258  A    between atoms: _635  and  _636
REMARK  259  A    between atoms: _636  and  _637
REMARK  260  A    between atoms: _641  and  _643
REMARK  261  A    between atoms: _643  and  _644
REMARK  262  A    between atoms: _643  and  _646
REMARK  263  A    between atoms: _646  and  _647
REMARK  264  A    between atoms: _652  and  _654
REMARK  265  A    between atoms: _654  and  _655
REMARK  266  A    between atoms: _654  and  _657
REMARK  267  A    between atoms: _657  and  _658
REMARK  268  A    between atoms: _658  and  _659
REMARK  269  A    between atoms: _659  and  _660
REMARK  270  A    between atoms: _660  and  _661
REMARK  271  A    between atoms: _665  and  _667
REMARK  272  A    between atoms: _667  and  _668
REMARK  273  A    between atoms: _667  and  _670
REMARK  274  A    between atoms: _670  and  _671
REMARK  275  A    between atoms: _681  and  _683
REMARK  276  A    between atoms: _683  and  _684
REMARK  277  A    between atoms: _687  and  _689
REMARK  278  A    between atoms: _689  and  _690
REMARK  279  A    between atoms: _692  and  _694
REMARK  280  A    between atoms: _694  and  _695
REMARK  281  A    between atoms: _694  and  _697
REMARK  282  A    between atoms: _697  and  _698
REMARK  283  A    between atoms: _698  and  _699
REMARK  284  A    between atoms: _702  and  _704
REMARK  285  A    between atoms: _704  and  _705
REMARK  286  A    between atoms: _708  and  _710
REMARK  287  A    between atoms: _710  and  _711
REMARK  288  A    between atoms: _710  and  _713
REMARK  289  A    between atoms: _713  and  _714
REMARK  290  A    between atoms: _714  and  _715
REMARK  291  A    between atoms: _715  and  _716
REMARK  292  A    between atoms: _725  and  _727
REMARK  293  A    between atoms: _727  and  _728
REMARK  294  A    between atoms: _727  and  _730
REMARK  295  A    between atoms: _730  and  _731
REMARK  296  A    between atoms: _734  and  _736
REMARK  297  A    between atoms: _736  and  _737
REMARK  298  A    between atoms: _736  and  _739
REMARK  299  A    between atoms: _739  and  _740
REMARK  300  A    between atoms: _745  and  _746
REMARK  301  A    between atoms: _748  and  _750
REMARK  302  A    between atoms: _750  and  _751
REMARK  303  A    between atoms: _750  and  _753
REMARK  304  A    between atoms: _753  and  _754
REMARK  305  A    between atoms: _757  and  _759
REMARK  306  A    between atoms: _759  and  _760
REMARK  307  A    between atoms: _759  and  _762
REMARK  308  A    between atoms: _762  and  _763
REMARK  309  A    between atoms: _766  and  _768
REMARK  310  A    between atoms: _768  and  _769
REMARK  311  A    between atoms: _768  and  _771
REMARK  312  A    between atoms: _771  and  _772
REMARK  313  A    between atoms: _773  and  _775
REMARK  314  A    between atoms: _775  and  _776
REMARK  315  A    between atoms: _775  and  _778
REMARK  316  A    between atoms: _781  and  _783
REMARK  317  A    between atoms: _783  and  _784
REMARK  318  A    between atoms: _783  and  _786
REMARK  319  A    between atoms: _786  and  _787
REMARK  320  A    between atoms: _787  and  _788
REMARK  321  A    between atoms: _791  and  _793
REMARK  322  A    between atoms: _793  and  _794
REMARK  323  A    between atoms: _793  and  _796
REMARK  324  A    between atoms: _796  and  _797
REMARK  325  A    between atoms: _807  and  _809
REMARK  326  A    between atoms: _809  and  _810
REMARK  327  A    between atoms: _809  and  _812
REMARK  328  A    between atoms: _812  and  _813
REMARK  329  A    between atoms: _816  and  _818
REMARK  330  A    between atoms: _818  and  _819
REMARK  331  A    between atoms: _818  and  _821
REMARK  332  A    between atoms: _821  and  _822
REMARK  333  A    between atoms: _822  and  _823
REMARK  334  A    between atoms: _823  and  _824
REMARK  335  A    between atoms: _833  and  _835
REMARK  336  A    between atoms: _835  and  _836
REMARK  337  A    between atoms: _835  and  _838
REMARK  338  A    between atoms: _838  and  _839
REMARK  339  A    between atoms: _844  and  _845
REMARK                            x       y       z     vdW  Elec       q    Type
REMARK                         _______ _______ _______ _____ _____    ______ ____
ROOT
ATOM      1  O   HOH     1      39.133  56.170 -10.261  0.00  0.00    +0.000 OA
ENDROOT
TORSDOF 0
REMARK  Name = ../refined-set-2016/1fzo/1fzo_pocket.pdb
REMARK  339 active torsions:
REMARK  status: ('A' for Active; 'I' for Inactive)
REMARK    1  A    between atoms: _1  and  _3
REMARK    2  A    between atoms: _3  and  _4
REMARK    3  A    between atoms: _3  and  _6
REMARK    4  A    between atoms: _6  and  _7
REMARK    5  A    between atoms: _10  and  _12
REMARK    6  A    between atoms: _12  and  _13
REMARK    7  A    between atoms: _12  and  _15
REMARK    8  A    between atoms: _15  and  _16
REMARK    9  A    between atoms: _16  and  _17
REMARK   10  A    between atoms: _17  and  _18
REMARK   11  A    between atoms: _27  and  _29
REMARK   12  A    between atoms: _29  and  _30
REMARK   13  A    between atoms: _29  and  _32
REMARK   14  A    between atoms: _32  and  _33
REMARK   15  A    between atoms: _38  and  _39
REMARK   16  A    between atoms: _41  and  _43
REMARK   17  A    between atoms: _43  and  _44
REMARK   18  A    between atoms: _43  and  _46
REMARK   19  A    between atoms: _46  and  _47
REMARK   20  A    between atoms: _53  and  _55
REMARK   21  A    between atoms: _55  and  _56
REMARK   22  A    between atoms: _55  and  _58
REMARK   23  A    between atoms: _61  and  _63
REMARK   24  A    between atoms: _63  and  _64
REMARK   25  A    between atoms: _63  and  _66
REMARK   26  A    between atoms: _66  and  _67
REMARK   27  A    between atoms: _70  and  _72
REMARK   28  A    between atoms: _72  and  _73
REMARK   29  A    between atoms: _72  and  _75
REMARK   30  A    between atoms: _75  and  _76
REMARK   31  A    between atoms: _82  and  _84
REMARK   32  A    between atoms: _84  and  _85
REMARK   33  A    between atoms: _84  and  _87
REMARK   34  A    between atoms: _87  and  _88
REMARK   35  A    between atoms: _91  and  _93
REMARK   36  A    between atoms: _93  and  _94
REMARK   37  A    between atoms: _93  and  _96
REMARK   38  A    between atoms: _96  and  _97
REMARK   39  A    between atoms: _99  and  _101
REMARK   40  A    between atoms: _101  and  _102
REMARK   41  A    between atoms: _101  and  _104
REMARK   42  A    between atoms: _107  and  _109
REMARK   43  A    between atoms: _109  and  _110
REMARK   44  A    between atoms: _112  and  _114
REMARK   45  A    between atoms: _114  and  _115
REMARK   46  A    between atoms: _114  and  _117
REMARK   47  A    between atoms: _120  and  _122
REMARK   48  A    between atoms: _122  and  _123
REMARK   49  A    between atoms: _122  and  _125
REMARK   50  A    between atoms: _125  and  _126
REMARK   51  A    between atoms: _132  and  _134
REMARK   52  A    between atoms: _134  and  _135
REMARK   53  A    between atoms: _134  and  _137
REMARK   54  A    between atoms: _140  and  _142
REMARK   55  A    between atoms: _142  and  _143
REMARK   56  A    between atoms: _142  and  _145
REMARK   57  A    between atoms: _145  and  _146
REMARK   58  A    between atoms: _151  and  _152
REMARK   59  A    between atoms: _154  and  _156
REMARK   60  A    between atoms: _156  and  _157
REMARK   61  A    between atoms: _156  and  _159
REMARK   62  A    between atoms: _159  and  _160
REMARK   63  A    between atoms: _160  and  _161
REMARK   64  A    between atoms: _163  and  _165
REMARK   65  A    between atoms: _165  and  _166
REMARK   66  A    between atoms: _165  and  _168
REMARK   67  A    between atoms: _168  and  _169
REMARK   68  A    between atoms: _169  and  _170
REMARK   69  A    between atoms: _173  and  _175
REMARK   70  A    between atoms: _175  and  _176
REMARK   71  A    between atoms: _175  and  _178
REMARK   72  A    between atoms: _178  and  _179
REMARK   73  A    between atoms: _179  and  _180
REMARK   74  A    between atoms: _183  and  _185
REMARK   75  A    between atoms: _185  and  _186
REMARK   76  A    between atoms: _185  and  _188
REMARK   77  A    between atoms: _188  and  _189
REMARK   78  A    between atoms: _194  and  _195
REMARK   79  A    between atoms: _197  and  _199
REMARK   80  A    between atoms: _199  and  _200
REMARK   81  A    between atoms: _199  and  _202
REMARK   82  A    between atoms: _202  and  _203
REMARK   83  A    between atoms: _213  and  _215
REMARK   84  A    between atoms: _215  and  _216
REMARK   85  A    between atoms: _215  and  _218
REMARK   86  A    between atoms: _218  and  _219
REMARK   87  A    between atoms: _219  and  _220
REMARK   88  A    between atoms: _223  and  _225
REMARK   89  A    between atoms: _225  and  _226
REMARK   90  A    between atoms: _225  and  _228
REMARK   91  A    between atoms: _228  and  _229
REMARK   92  A    between atoms: _229  and  _230
REMARK   93  A    between atoms: _230  and  _231
REMARK   94  A    between atoms: _240  and  _242
REMARK   95  A    between atoms: _242  and  _243
REMARK   96  A    between atoms: _242  and  _245
REMARK   97  A    between atoms: _245  and  _246
REMARK   98  A    between atoms: _246  and  _247
REMARK   99  A    between atoms: _250  and  _252
REMARK  100  A    between atoms: _252  and  _253
REMARK  101  A    between atoms: _252  and  _255
REMARK  102  A    between atoms: _255  and  _256
REMARK  103  A    between atoms: _259  and  _261
REMARK  104  A    between atoms: _261  and  _262
REMARK  105  A    between atoms: _261  and  _264
REMARK  106  A    between atoms: _264  and  _265
REMARK  107  A    between atoms: _265  and  _266
REMARK  108  A    between atoms: _271  and  _273
REMARK  109  A    between atoms: _273  and  _274
REMARK  110  A    between atoms: _273  and  _276
REMARK  111  A    between atoms: _276  and  _277
REMARK  112  A    between atoms: _277  and  _278
REMARK  113  A    between atoms: _278  and  _279
REMARK  114  A    between atoms: _279  and  _280
REMARK  115  A    between atoms: _284  and  _286
REMARK  116  A    between atoms: _286  and  _287
REMARK  117  A    between atoms: _290  and  _292
REMARK  118  A    between atoms: _292  and  _293
REMARK  119  A    between atoms: _295  and  _297
REMARK  120  A    between atoms: _297  and  _298
REMARK  121  A    between atoms: _297  and  _300
REMARK  122  A    between atoms: _300  and  _301
REMARK  123  A    between atoms: _306  and  _308
REMARK  124  A    between atoms: _308  and  _309
REMARK  125  A    between atoms: _308  and  _311
REMARK  126  A    between atoms: _311  and  _312
REMARK  127  A    between atoms: _312  and  _313
REMARK  128  A    between atoms: _316  and  _318
REMARK  129  A    between atoms: _318  and  _319
REMARK  130  A    between atoms: _318  and  _321
REMARK  131  A    between atoms: _321  and  _322
REMARK  132  A    between atoms: _322  and  _323
REMARK  133  A    between atoms: _328  and  _330
REMARK  134  A    between atoms: _330  and  _331
REMARK  135  A    between atoms: _330  and  _333
REMARK  136  A    between atoms: _333  and  _334
REMARK  137  A    between atoms: _336  and  _338
REMARK  138  A    between atoms: _338  and  _339
REMARK  139  A    between atoms: _338  and  _341
REMARK  140  A    between atoms: _341  and  _342
REMARK  141  A    between atoms: _348  and  _350
REMARK  142  A    between atoms: _350  and  _351
REMARK  143  A    between atoms: _350  and  _353
REMARK  144  A    between atoms: _356  and  _358
REMARK  145  A    between atoms: _358  and  _359
REMARK  146  A    between atoms: _358  and  _361
REMARK  147  A    between atoms: _361  and  _362
REMARK  148  A    between atoms: _365  and  _367
REMARK  149  A    between atoms: _367  and  _368
REMARK  150  A    between atoms: _367  and  _370
REMARK  151  A    between atoms: _370  and  _371
REMARK  152  A    between atoms: _374  and  _376
REMARK  153  A    between atoms: _376  and  _377
REMARK  154  A    between atoms: _376  and  _379
REMARK  155  A    between atoms: _379  and  _380
REMARK  156  A    between atoms: _383  and  _385
REMARK  157  A    between atoms: _385  and  _386
REMARK  158  A    between atoms: _385  and  _388
REMARK  159  A    between atoms: _388  and  _389
REMARK  160  A    between atoms: _392  and  _394
REMARK  161  A    between atoms: _394  and  _395
REMARK  162  A    between atoms: _394  and  _397
REMARK  163  A    between atoms: _397  and  _398
REMARK  164  A    between atoms: _403  and  _404
REMARK  165  A    between atoms: _406  and  _408
REMARK  166  A    between atoms: _408  and  _409
REMARK  167  A    between atoms: _408  and  _411
REMARK  168  A    between atoms: _411  and  _412
REMARK  169  A    between atoms: _417  and  _418
REMARK  170  A    between atoms: _420  and  _422
REMARK  171  A    between atoms: _422  and  _423
REMARK  172  A    between atoms: _422  and  _425
REMARK  173  A    between atoms: _425  and  _426
REMARK  174  A    between atoms: _429  and  _431
REMARK  175  A    between atoms: _431  and  _432
REMARK  176  A    between atoms: _431  and  _434
REMARK  177  A    between atoms: _434  and  _435
REMARK  178  A    between atoms: _435  and  _436
REMARK  179  A    between atoms: _441  and  _443
REMARK  180  A    between atoms: _443  and  _444
REMARK  181  A    between atoms: _443  and  _446
REMARK  182  A    between atoms: _449  and  _451
REMARK  183  A    between atoms: _451  and  _452
REMARK  184  A    between atoms: _451  and  _454
REMARK  185  A    between atoms: _454  and  _455
REMARK  186  A    between atoms: _458  and  _460
REMARK  187  A    between atoms: _460  and  _461
REMARK  188  A    between atoms: _460  and  _463
REMARK  189  A    between atoms: _463  and  _464
REMARK  190  A    between atoms: _466  and  _468
REMARK  191  A    between atoms: _468  and  _469
REMARK  192  A    between atoms: _471  and  _473
REMARK  193  A    between atoms: _473  and  _474
REMARK  194  A    between atoms: _473  and  _476
REMARK  195  A    between atoms: _476  and  _477
REMARK  196  A    between atoms: _477  and  _772
REMARK  197  A    between atoms: _478  and  _480
REMARK  198  A    between atoms: _480  and  _481
REMARK  199  A    between atoms: _480  and  _483
REMARK  200  A    between atoms: _483  and  _484
REMARK  201  A    between atoms: _489  and  _490
REMARK  202  A    between atoms: _492  and  _494
REMARK  203  A    between atoms: _494  and  _495
REMARK  204  A    between atoms: _494  and  _497
REMARK  205  A    between atoms: _497  and  _498
REMARK  206  A    between atoms: _498  and  _499
REMARK  207  A    between atoms: _504  and  _506
REMARK  208  A    between atoms: _506  and  _507
REMARK  209  A    between atoms: _506  and  _509
REMARK  210  A    between atoms: _509  and  _510
REMARK  211  A    between atoms: _510  and  _511
REMARK  212  A    between atoms: _516  and  _518
REMARK  213  A    between atoms: _518  and  _519
REMARK  214  A    between atoms: _518  and  _521
REMARK  215  A    between atoms: _521  and  _522
REMARK  216  A    between atoms: _527  and  _528
REMARK  217  A    between atoms: _530  and  _532
REMARK  218  A    between atoms: _532  and  _533
REMARK  219  A    between atoms: _536  and  _538
REMARK  220  A    between atoms: _538  and  _539
REMARK  221  A    between atoms: _538  and  _541
REMARK  222  A    between atoms: _541  and  _542
REMARK  223  A    between atoms: _547  and  _548
REMARK  224  A    between atoms: _550  and  _552
REMARK  225  A    between atoms: _552  and  _553
REMARK  226  A    between atoms: _552  and  _555
REMARK  227  A    between atoms: _555  and  _556
REMARK  228  A    between atoms: _561  and  _562
REMARK  229  A    between atoms: _564  and  _566
REMARK  230  A    between atoms: _566  and  _567
REMARK  231  A    between atoms: _566  and  _569
REMARK  232  A    between atoms: _569  and  _570
REMARK  233  A    between atoms: _573  and  _575
REMARK  234  A    between atoms: _575  and  _576
REMARK  235  A    between atoms: _575  and  _578
REMARK  236  A    between atoms: _578  and  _579
REMARK  237  A    between atoms: _589  and  _591
REMARK  238  A    between atoms: _591  and  _592
REMARK  239  A    between atoms: _595  and  _597
REMARK  240  A    between atoms: _597  and  _598
REMARK  241  A    between atoms: _601  and  _603
REMARK  242  A    between atoms: _603  and  _604
REMARK  243  A    between atoms: _603  and  _606
REMARK  244  A    between atoms: _606  and  _607
REMARK  245  A    between atoms: _610  and  _612
REMARK  246  A    between atoms: _612  and  _613
REMARK  247  A    between atoms: _612  and  _615
REMARK  248  A    between atoms: _615  and  _616
REMARK  249  A    between atoms: _619  and  _621
REMARK  250  A    between atoms: _621  and  _622
REMARK  251  A    between atoms: _621  and  _624
REMARK  252  A    between atoms: _624  and  _625
REMARK  253  A    between atoms: _628  and  _630
REMARK  254  A    between atoms: _630  and  _631
REMARK  255  A    between atoms: _630  and  _633
REMARK  256  A    between atoms: _633  and  _634
REMARK  257  A    between atoms: _634  and  _635
REMARK  258  A    between atoms: _635  and  _636
REMARK  259  A    between atoms: _636  and  _637
REMARK  260  A    between atoms: _641  and  _643
REMARK  261  A    between atoms: _643  and  _644
REMARK  262  A    between atoms: _643  and  _646
REMARK  263  A    between atoms: _646  and  _647
REMARK  264  A    between atoms: _652  and  _654
REMARK  265  A    between atoms: _654  and  _655
REMARK  266  A    between atoms: _654  and  _657
REMARK  267  A    between atoms: _657  and  _658
REMARK  268  A    between atoms: _658  and  _659
REMARK  269  A    between atoms: _659  and  _660
REMARK  270  A    between atoms: _660  and  _661
REMARK  271  A    between atoms: _665  and  _667
REMARK  272  A    between atoms: _667  and  _668
REMARK  273  A    between atoms: _667  and  _670
REMARK  274  A    between atoms: _670  and  _671
REMARK  275  A    between atoms: _681  and  _683
REMARK  276  A    between atoms: _683  and  _684
REMARK  277  A    between atoms: _687  and  _689
REMARK  278  A    between atoms: _689  and  _690
REMARK  279  A    between atoms: _692  and  _694
REMARK  280  A    between atoms: _694  and  _695
REMARK  281  A    between atoms: _694  and  _697
REMARK  282  A    between atoms: _697  and  _698
REMARK  283  A    between atoms: _698  and  _699
REMARK  284  A    between atoms: _702  and  _704
REMARK  285  A    between atoms: _704  and  _705
REMARK  286  A    between atoms: _708  and  _710
REMARK  287  A    between atoms: _710  and  _711
REMARK  288  A    between atoms: _710  and  _713
REMARK  289  A    between atoms: _713  and  _714
REMARK  290  A    between atoms: _714  and  _715
REMARK  291  A    between atoms: _715  and  _716
REMARK  292  A    between atoms: _725  and  _727
REMARK  293  A    between atoms: _727  and  _728
REMARK  294  A    between atoms: _727  and  _730
REMARK  295  A    between atoms: _730  and  _731
REMARK  296  A    between atoms: _734  and  _736
REMARK  297  A    between atoms: _736  and  _737
REMARK  298  A    between atoms: _736  and  _739
REMARK  299  A    between atoms: _739  and  _740
REMARK  300  A    between atoms: _745  and  _746
REMARK  301  A    between atoms: _748  and  _750
REMARK  302  A    between atoms: _750  and  _751
REMARK  303  A    between atoms: _750  and  _753
REMARK  304  A    between atoms: _753  and  _754
REMARK  305  A    between atoms: _757  and  _759
REMARK  306  A    between atoms: _759  and  _760
REMARK  307  A    between atoms: _759  and  _762
REMARK  308  A    between atoms: _762  and  _763
REMARK  309  A    between atoms: _766  and  _768
REMARK  310  A    between atoms: _768  and  _769
REMARK  311  A    between atoms: _768  and  _771
REMARK  312  A    between atoms: _771  and  _772
REMARK  313  A    between atoms: _773  and  _775
REMARK  314  A    between atoms: _775  and  _776
REMARK  315  A    between atoms: _775  and  _778
REMARK  316  A    between atoms: _781  and  _783
REMARK  317  A    between atoms: _783  and  _784
REMARK  318  A    between atoms: _783  and  _786
REMARK  319  A    between atoms: _786  and  _787
REMARK  320  A    between atoms: _787  and  _788
REMARK  321  A    between atoms: _791  and  _793
REMARK  322  A    between atoms: _793  and  _794
REMARK  323  A    between atoms: _793  and  _796
REMARK  324  A    between atoms: _796  and  _797
REMARK  325  A    between atoms: _807  and  _809
REMARK  326  A    between atoms: _809  and  _810
REMARK  327  A    between atoms: _809  and  _812
REMARK  328  A    between atoms: _812  and  _813
REMARK  329  A    between atoms: _816  and  _818
REMARK  330  A    between atoms: _818  and  _819
REMARK  331  A    between atoms: _818  and  _821
REMARK  332  A    between atoms: _821  and  _822
REMARK  333  A    between atoms: _822  and  _823
REMARK  334  A    between atoms: _823  and  _824
REMARK  335  A    between atoms: _833  and  _835
REMARK  336  A    between atoms: _835  and  _836
REMARK  337  A    between atoms: _835  and  _838
REMARK  338  A    between atoms: _838  and  _839
REMARK  339  A    between atoms: _844  and  _845
REMARK                            x       y       z     vdW  Elec       q    Type
REMARK                         _______ _______ _______ _____ _____    ______ ____
ROOT
ATOM      1  O   HOH     1      45.914  63.281   1.570  0.00  0.00    +0.000 OA
ENDROOT
TORSDOF 0
REMARK  Name = ../refined-set-2016/1fzo/1fzo_pocket.pdb
REMARK  339 active torsions:
REMARK  status: ('A' for Active; 'I' for Inactive)
REMARK    1  A    between atoms: _1  and  _3
REMARK    2  A    between atoms: _3  and  _4
REMARK    3  A    between atoms: _3  and  _6
REMARK    4  A    between atoms: _6  and  _7
REMARK    5  A    between atoms: _10  and  _12
REMARK    6  A    between atoms: _12  and  _13
REMARK    7  A    between atoms: _12  and  _15
REMARK    8  A    between atoms: _15  and  _16
REMARK    9  A    between atoms: _16  and  _17
REMARK   10  A    between atoms: _17  and  _18
REMARK   11  A    between atoms: _27  and  _29
REMARK   12  A    between atoms: _29  and  _30
REMARK   13  A    between atoms: _29  and  _32
REMARK   14  A    between atoms: _32  and  _33
REMARK   15  A    between atoms: _38  and  _39
REMARK   16  A    between atoms: _41  and  _43
REMARK   17  A    between atoms: _43  and  _44
REMARK   18  A    between atoms: _43  and  _46
REMARK   19  A    between atoms: _46  and  _47
REMARK   20  A    between atoms: _53  and  _55
REMARK   21  A    between atoms: _55  and  _56
REMARK   22  A    between atoms: _55  and  _58
REMARK   23  A    between atoms: _61  and  _63
REMARK   24  A    between atoms: _63  and  _64
REMARK   25  A    between atoms: _63  and  _66
REMARK   26  A    between atoms: _66  and  _67
REMARK   27  A    between atoms: _70  and  _72
REMARK   28  A    between atoms: _72  and  _73
REMARK   29  A    between atoms: _72  and  _75
REMARK   30  A    between atoms: _75  and  _76
REMARK   31  A    between atoms: _82  and  _84
REMARK   32  A    between atoms: _84  and  _85
REMARK   33  A    between atoms: _84  and  _87
REMARK   34  A    between atoms: _87  and  _88
REMARK   35  A    between atoms: _91  and  _93
REMARK   36  A    between atoms: _93  and  _94
REMARK   37  A    between atoms: _93  and  _96
REMARK   38  A    between atoms: _96  and  _97
REMARK   39  A    between atoms: _99  and  _101
REMARK   40  A    between atoms: _101  and  _102
REMARK   41  A    between atoms: _101  and  _104
REMARK   42  A    between atoms: _107  and  _109
REMARK   43  A    between atoms: _109  and  _110
REMARK   44  A    between atoms: _112  and  _114
REMARK   45  A    between atoms: _114  and  _115
REMARK   46  A    between atoms: _114  and  _117
REMARK   47  A    between atoms: _120  and  _122
REMARK   48  A    between atoms: _122  and  _123
REMARK   49  A    between atoms: _122  and  _125
REMARK   50  A    between atoms: _125  and  _126
REMARK   51  A    between atoms: _132  and  _134
REMARK   52  A    between atoms: _134  and  _135
REMARK   53  A    between atoms: _134  and  _137
REMARK   54  A    between atoms: _140  and  _142
REMARK   55  A    between atoms: _142  and  _143
REMARK   56  A    between atoms: _142  and  _145
REMARK   57  A    between atoms: _145  and  _146
REMARK   58  A    between atoms: _151  and  _152
REMARK   59  A    between atoms: _154  and  _156
REMARK   60  A    between atoms: _156  and  _157
REMARK   61  A    between atoms: _156  and  _159
REMARK   62  A    between atoms: _159  and  _160
REMARK   63  A    between atoms: _160  and  _161
REMARK   64  A    between atoms: _163  and  _165
REMARK   65  A    between atoms: _165  and  _166
REMARK   66  A    between atoms: _165  and  _168
REMARK   67  A    between atoms: _168  and  _169
REMARK   68  A    between atoms: _169  and  _170
REMARK   69  A    between atoms: _173  and  _175
REMARK   70  A    between atoms: _175  and  _176
REMARK   71  A    between atoms: _175  and  _178
REMARK   72  A    between atoms: _178  and  _179
REMARK   73  A    between atoms: _179  and  _180
REMARK   74  A    between atoms: _183  and  _185
REMARK   75  A    between atoms: _185  and  _186
REMARK   76  A    between atoms: _185  and  _188
REMARK   77  A    between atoms: _188  and  _189
REMARK   78  A    between atoms: _194  and  _195
REMARK   79  A    between atoms: _197  and  _199
REMARK   80  A    between atoms: _199  and  _200
REMARK   81  A    between atoms: _199  and  _202
REMARK   82  A    between atoms: _202  and  _203
REMARK   83  A    between atoms: _213  and  _215
REMARK   84  A    between atoms: _215  and  _216
REMARK   85  A    between atoms: _215  and  _218
REMARK   86  A    between atoms: _218  and  _219
REMARK   87  A    between atoms: _219  and  _220
REMARK   88  A    between atoms: _223  and  _225
REMARK   89  A    between atoms: _225  and  _226
REMARK   90  A    between atoms: _225  and  _228
REMARK   91  A    between atoms: _228  and  _229
REMARK   92  A    between atoms: _229  and  _230
REMARK   93  A    between atoms: _230  and  _231
REMARK   94  A    between atoms: _240  and  _242
REMARK   95  A    between atoms: _242  and  _243
REMARK   96  A    between atoms: _242  and  _245
REMARK   97  A    between atoms: _245  and  _246
REMARK   98  A    between atoms: _246  and  _247
REMARK   99  A    between atoms: _250  and  _252
REMARK  100  A    between atoms: _252  and  _253
REMARK  101  A    between atoms: _252  and  _255
REMARK  102  A    between atoms: _255  and  _256
REMARK  103  A    between atoms: _259  and  _261
REMARK  104  A    between atoms: _261  and  _262
REMARK  105  A    between atoms: _261  and  _264
REMARK  106  A    between atoms: _264  and  _265
REMARK  107  A    between atoms: _265  and  _266
REMARK  108  A    between atoms: _271  and  _273
REMARK  109  A    between atoms: _273  and  _274
REMARK  110  A    between atoms: _273  and  _276
REMARK  111  A    between atoms: _276  and  _277
REMARK  112  A    between atoms: _277  and  _278
REMARK  113  A    between atoms: _278  and  _279
REMARK  114  A    between atoms: _279  and  _280
REMARK  115  A    between atoms: _284  and  _286
REMARK  116  A    between atoms: _286  and  _287
REMARK  117  A    between atoms: _290  and  _292
REMARK  118  A    between atoms: _292  and  _293
REMARK  119  A    between atoms: _295  and  _297
REMARK  120  A    between atoms: _297  and  _298
REMARK  121  A    between atoms: _297  and  _300
REMARK  122  A    between atoms: _300  and  _301
REMARK  123  A    between atoms: _306  and  _308
REMARK  124  A    between atoms: _308  and  _309
REMARK  125  A    between atoms: _308  and  _311
REMARK  126  A    between atoms: _311  and  _312
REMARK  127  A    between atoms: _312  and  _313
REMARK  128  A    between atoms: _316  and  _318
REMARK  129  A    between atoms: _318  and  _319
REMARK  130  A    between atoms: _318  and  _321
REMARK  131  A    between atoms: _321  and  _322
REMARK  132  A    between atoms: _322  and  _323
REMARK  133  A    between atoms: _328  and  _330
REMARK  134  A    between atoms: _330  and  _331
REMARK  135  A    between atoms: _330  and  _333
REMARK  136  A    between atoms: _333  and  _334
REMARK  137  A    between atoms: _336  and  _338
REMARK  138  A    between atoms: _338  and  _339
REMARK  139  A    between atoms: _338  and  _341
REMARK  140  A    between atoms: _341  and  _342
REMARK  141  A    between atoms: _348  and  _350
REMARK  142  A    between atoms: _350  and  _351
REMARK  143  A    between atoms: _350  and  _353
REMARK  144  A    between atoms: _356  and  _358
REMARK  145  A    between atoms: _358  and  _359
REMARK  146  A    between atoms: _358  and  _361
REMARK  147  A    between atoms: _361  and  _362
REMARK  148  A    between atoms: _365  and  _367
REMARK  149  A    between atoms: _367  and  _368
REMARK  150  A    between atoms: _367  and  _370
REMARK  151  A    between atoms: _370  and  _371
REMARK  152  A    between atoms: _374  and  _376
REMARK  153  A    between atoms: _376  and  _377
REMARK  154  A    between atoms: _376  and  _379
REMARK  155  A    between atoms: _379  and  _380
REMARK  156  A    between atoms: _383  and  _385
REMARK  157  A    between atoms: _385  and  _386
REMARK  158  A    between atoms: _385  and  _388
REMARK  159  A    between atoms: _388  and  _389
REMARK  160  A    between atoms: _392  and  _394
REMARK  161  A    between atoms: _394  and  _395
REMARK  162  A    between atoms: _394  and  _397
REMARK  163  A    between atoms: _397  and  _398
REMARK  164  A    between atoms: _403  and  _404
REMARK  165  A    between atoms: _406  and  _408
REMARK  166  A    between atoms: _408  and  _409
REMARK  167  A    between atoms: _408  and  _411
REMARK  168  A    between atoms: _411  and  _412
REMARK  169  A    between atoms: _417  and  _418
REMARK  170  A    between atoms: _420  and  _422
REMARK  171  A    between atoms: _422  and  _423
REMARK  172  A    between atoms: _422  and  _425
REMARK  173  A    between atoms: _425  and  _426
REMARK  174  A    between atoms: _429  and  _431
REMARK  175  A    between atoms: _431  and  _432
REMARK  176  A    between atoms: _431  and  _434
REMARK  177  A    between atoms: _434  and  _435
REMARK  178  A    between atoms: _435  and  _436
REMARK  179  A    between atoms: _441  and  _443
REMARK  180  A    between atoms: _443  and  _444
REMARK  181  A    between atoms: _443  and  _446
REMARK  182  A    between atoms: _449  and  _451
REMARK  183  A    between atoms: _451  and  _452
REMARK  184  A    between atoms: _451  and  _454
REMARK  185  A    between atoms: _454  and  _455
REMARK  186  A    between atoms: _458  and  _460
REMARK  187  A    between atoms: _460  and  _461
REMARK  188  A    between atoms: _460  and  _463
REMARK  189  A    between atoms: _463  and  _464
REMARK  190  A    between atoms: _466  and  _468
REMARK  191  A    between atoms: _468  and  _469
REMARK  192  A    between atoms: _471  and  _473
REMARK  193  A    between atoms: _473  and  _474
REMARK  194  A    between atoms: _473  and  _476
REMARK  195  A    between atoms: _476  and  _477
REMARK  196  A    between atoms: _477  and  _772
REMARK  197  A    between atoms: _478  and  _480
REMARK  198  A    between atoms: _480  and  _481
REMARK  199  A    between atoms: _480  and  _483
REMARK  200  A    between atoms: _483  and  _484
REMARK  201  A    between atoms: _489  and  _490
REMARK  202  A    between atoms: _492  and  _494
REMARK  203  A    between atoms: _494  and  _495
REMARK  204  A    between atoms: _494  and  _497
REMARK  205  A    between atoms: _497  and  _498
REMARK  206  A    between atoms: _498  and  _499
REMARK  207  A    between atoms: _504  and  _506
REMARK  208  A    between atoms: _506  and  _507
REMARK  209  A    between atoms: _506  and  _509
REMARK  210  A    between atoms: _509  and  _510
REMARK  211  A    between atoms: _510  and  _511
REMARK  212  A    between atoms: _516  and  _518
REMARK  213  A    between atoms: _518  and  _519
REMARK  214  A    between atoms: _518  and  _521
REMARK  215  A    between atoms: _521  and  _522
REMARK  216  A    between atoms: _527  and  _528
REMARK  217  A    between atoms: _530  and  _532
REMARK  218  A    between atoms: _532  and  _533
REMARK  219  A    between atoms: _536  and  _538
REMARK  220  A    between atoms: _538  and  _539
REMARK  221  A    between atoms: _538  and  _541
REMARK  222  A    between atoms: _541  and  _542
REMARK  223  A    between atoms: _547  and  _548
REMARK  224  A    between atoms: _550  and  _552
REMARK  225  A    between atoms: _552  and  _553
REMARK  226  A    between atoms: _552  and  _555
REMARK  227  A    between atoms: _555  and  _556
REMARK  228  A    between atoms: _561  and  _562
REMARK  229  A    between atoms: _564  and  _566
REMARK  230  A    between atoms: _566  and  _567
REMARK  231  A    between atoms: _566  and  _569
REMARK  232  A    between atoms: _569  and  _570
REMARK  233  A    between atoms: _573  and  _575
REMARK  234  A    between atoms: _575  and  _576
REMARK  235  A    between atoms: _575  and  _578
REMARK  236  A    between atoms: _578  and  _579
REMARK  237  A    between atoms: _589  and  _591
REMARK  238  A    between atoms: _591  and  _592
REMARK  239  A    between atoms: _595  and  _597
REMARK  240  A    between atoms: _597  and  _598
REMARK  241  A    between atoms: _601  and  _603
REMARK  242  A    between atoms: _603  and  _604
REMARK  243  A    between atoms: _603  and  _606
REMARK  244  A    between atoms: _606  and  _607
REMARK  245  A    between atoms: _610  and  _612
REMARK  246  A    between atoms: _612  and  _613
REMARK  247  A    between atoms: _612  and  _615
REMARK  248  A    between atoms: _615  and  _616
REMARK  249  A    between atoms: _619  and  _621
REMARK  250  A    between atoms: _621  and  _622
REMARK  251  A    between atoms: _621  and  _624
REMARK  252  A    between atoms: _624  and  _625
REMARK  253  A    between atoms: _628  and  _630
REMARK  254  A    between atoms: _630  and  _631
REMARK  255  A    between atoms: _630  and  _633
REMARK  256  A    between atoms: _633  and  _634
REMARK  257  A    between atoms: _634  and  _635
REMARK  258  A    between atoms: _635  and  _636
REMARK  259  A    between atoms: _636  and  _637
REMARK  260  A    between atoms: _641  and  _643
REMARK  261  A    between atoms: _643  and  _644
REMARK  262  A    between atoms: _643  and  _646
REMARK  263  A    between atoms: _646  and  _647
REMARK  264  A    between atoms: _652  and  _654
REMARK  265  A    between atoms: _654  and  _655
REMARK  266  A    between atoms: _654  and  _657
REMARK  267  A    between atoms: _657  and  _658
REMARK  268  A    between atoms: _658  and  _659
REMARK  269  A    between atoms: _659  and  _660
REMARK  270  A    between atoms: _660  and  _661
REMARK  271  A    between atoms: _665  and  _667
REMARK  272  A    between atoms: _667  and  _668
REMARK  273  A    between atoms: _667  and  _670
REMARK  274  A    between atoms: _670  and  _671
REMARK  275  A    between atoms: _681  and  _683
REMARK  276  A    between atoms: _683  and  _684
REMARK  277  A    between atoms: _687  and  _689
REMARK  278  A    between atoms: _689  and  _690
REMARK  279  A    between atoms: _692  and  _694
REMARK  280  A    between atoms: _694  and  _695
REMARK  281  A    between atoms: _694  and  _697
REMARK  282  A    between atoms: _697  and  _698
REMARK  283  A    between atoms: _698  and  _699
REMARK  284  A    between atoms: _702  and  _704
REMARK  285  A    between atoms: _704  and  _705
REMARK  286  A    between atoms: _708  and  _710
REMARK  287  A    between atoms: _710  and  _711
REMARK  288  A    between atoms: _710  and  _713
REMARK  289  A    between atoms: _713  and  _714
REMARK  290  A    between atoms: _714  and  _715
REMARK  291  A    between atoms: _715  and  _716
REMARK  292  A    between atoms: _725  and  _727
REMARK  293  A    between atoms: _727  and  _728
REMARK  294  A    between atoms: _727  and  _730
REMARK  295  A    between atoms: _730  and  _731
REMARK  296  A    between atoms: _734  and  _736
REMARK  297  A    between atoms: _736  and  _737
REMARK  298  A    between atoms: _736  and  _739
REMARK  299  A    between atoms: _739  and  _740
REMARK  300  A    between atoms: _745  and  _746
REMARK  301  A    between atoms: _748  and  _750
REMARK  302  A    between atoms: _750  and  _751
REMARK  303  A    between atoms: _750  and  _753
REMARK  304  A    between atoms: _753  and  _754
REMARK  305  A    between atoms: _757  and  _759
REMARK  306  A    between atoms: _759  and  _760
REMARK  307  A    between atoms: _759  and  _762
REMARK  308  A    between atoms: _762  and  _763
REMARK  309  A    between atoms: _766  and  _768
REMARK  310  A    between atoms: _768  and  _769
REMARK  311  A    between atoms: _768  and  _771
REMARK  312  A    between atoms: _771  and  _772
REMARK  313  A    between atoms: _773  and  _775
REMARK  314  A    between atoms: _775  and  _776
REMARK  315  A    between atoms: _775  and  _778
REMARK  316  A    between atoms: _781  and  _783
REMARK  317  A    between atoms: _783  and  _784
REMARK  318  A    between atoms: _783  and  _786
REMARK  319  A    between atoms: _786  and  _787
REMARK  320  A    between atoms: _787  and  _788
REMARK  321  A    between atoms: _791  and  _793
REMARK  322  A    between atoms: _793  and  _794
REMARK  323  A    between atoms: _793  and  _796
REMARK  324  A    between atoms: _796  and  _797
REMARK  325  A    between atoms: _807  and  _809
REMARK  326  A    between atoms: _809  and  _810
REMARK  327  A    between atoms: _809  and  _812
REMARK  328  A    between atoms: _812  and  _813
REMARK  329  A    between atoms: _816  and  _818
REMARK  330  A    between atoms: _818  and  _819
REMARK  331  A    between atoms: _818  and  _821
REMARK  332  A    between atoms: _821  and  _822
REMARK  333  A    between atoms: _822  and  _823
REMARK  334  A    between atoms: _823  and  _824
REMARK  335  A    between atoms: _833  and  _835
REMARK  336  A    between atoms: _835  and  _836
REMARK  337  A    between atoms: _835  and  _838
REMARK  338  A    between atoms: _838  and  _839
REMARK  339  A    between atoms: _844  and  _845
REMARK                            x       y       z     vdW  Elec       q    Type
REMARK                         _______ _______ _______ _____ _____    ______ ____
ROOT
ATOM      1  O   HOH     1      37.497  56.843  -8.164  0.00  0.00    +0.000 OA
ENDROOT
TORSDOF 0
REMARK  Name = ../refined-set-2016/1fzo/1fzo_pocket.pdb
REMARK  339 active torsions:
REMARK  status: ('A' for Active; 'I' for Inactive)
REMARK    1  A    between atoms: _1  and  _3
REMARK    2  A    between atoms: _3  and  _4
REMARK    3  A    between atoms: _3  and  _6
REMARK    4  A    between atoms: _6  and  _7
REMARK    5  A    between atoms: _10  and  _12
REMARK    6  A    between atoms: _12  and  _13
REMARK    7  A    between atoms: _12  and  _15
REMARK    8  A    between atoms: _15  and  _16
REMARK    9  A    between atoms: _16  and  _17
REMARK   10  A    between atoms: _17  and  _18
REMARK   11  A    between atoms: _27  and  _29
REMARK   12  A    between atoms: _29  and  _30
REMARK   13  A    between atoms: _29  and  _32
REMARK   14  A    between atoms: _32  and  _33
REMARK   15  A    between atoms: _38  and  _39
REMARK   16  A    between atoms: _41  and  _43
REMARK   17  A    between atoms: _43  and  _44
REMARK   18  A    between atoms: _43  and  _46
REMARK   19  A    between atoms: _46  and  _47
REMARK   20  A    between atoms: _53  and  _55
REMARK   21  A    between atoms: _55  and  _56
REMARK   22  A    between atoms: _55  and  _58
REMARK   23  A    between atoms: _61  and  _63
REMARK   24  A    between atoms: _63  and  _64
REMARK   25  A    between atoms: _63  and  _66
REMARK   26  A    between atoms: _66  and  _67
REMARK   27  A    between atoms: _70  and  _72
REMARK   28  A    between atoms: _72  and  _73
REMARK   29  A    between atoms: _72  and  _75
REMARK   30  A    between atoms: _75  and  _76
REMARK   31  A    between atoms: _82  and  _84
REMARK   32  A    between atoms: _84  and  _85
REMARK   33  A    between atoms: _84  and  _87
REMARK   34  A    between atoms: _87  and  _88
REMARK   35  A    between atoms: _91  and  _93
REMARK   36  A    between atoms: _93  and  _94
REMARK   37  A    between atoms: _93  and  _96
REMARK   38  A    between atoms: _96  and  _97
REMARK   39  A    between atoms: _99  and  _101
REMARK   40  A    between atoms: _101  and  _102
REMARK   41  A    between atoms: _101  and  _104
REMARK   42  A    between atoms: _107  and  _109
REMARK   43  A    between atoms: _109  and  _110
REMARK   44  A    between atoms: _112  and  _114
REMARK   45  A    between atoms: _114  and  _115
REMARK   46  A    between atoms: _114  and  _117
REMARK   47  A    between atoms: _120  and  _122
REMARK   48  A    between atoms: _122  and  _123
REMARK   49  A    between atoms: _122  and  _125
REMARK   50  A    between atoms: _125  and  _126
REMARK   51  A    between atoms: _132  and  _134
REMARK   52  A    between atoms: _134  and  _135
REMARK   53  A    between atoms: _134  and  _137
REMARK   54  A    between atoms: _140  and  _142
REMARK   55  A    between atoms: _142  and  _143
REMARK   56  A    between atoms: _142  and  _145
REMARK   57  A    between atoms: _145  and  _146
REMARK   58  A    between atoms: _151  and  _152
REMARK   59  A    between atoms: _154  and  _156
REMARK   60  A    between atoms: _156  and  _157
REMARK   61  A    between atoms: _156  and  _159
REMARK   62  A    between atoms: _159  and  _160
REMARK   63  A    between atoms: _160  and  _161
REMARK   64  A    between atoms: _163  and  _165
REMARK   65  A    between atoms: _165  and  _166
REMARK   66  A    between atoms: _165  and  _168
REMARK   67  A    between atoms: _168  and  _169
REMARK   68  A    between atoms: _169  and  _170
REMARK   69  A    between atoms: _173  and  _175
REMARK   70  A    between atoms: _175  and  _176
REMARK   71  A    between atoms: _175  and  _178
REMARK   72  A    between atoms: _178  and  _179
REMARK   73  A    between atoms: _179  and  _180
REMARK   74  A    between atoms: _183  and  _185
REMARK   75  A    between atoms: _185  and  _186
REMARK   76  A    between atoms: _185  and  _188
REMARK   77  A    between atoms: _188  and  _189
REMARK   78  A    between atoms: _194  and  _195
REMARK   79  A    between atoms: _197  and  _199
REMARK   80  A    between atoms: _199  and  _200
REMARK   81  A    between atoms: _199  and  _202
REMARK   82  A    between atoms: _202  and  _203
REMARK   83  A    between atoms: _213  and  _215
REMARK   84  A    between atoms: _215  and  _216
REMARK   85  A    between atoms: _215  and  _218
REMARK   86  A    between atoms: _218  and  _219
REMARK   87  A    between atoms: _219  and  _220
REMARK   88  A    between atoms: _223  and  _225
REMARK   89  A    between atoms: _225  and  _226
REMARK   90  A    between atoms: _225  and  _228
REMARK   91  A    between atoms: _228  and  _229
REMARK   92  A    between atoms: _229  and  _230
REMARK   93  A    between atoms: _230  and  _231
REMARK   94  A    between atoms: _240  and  _242
REMARK   95  A    between atoms: _242  and  _243
REMARK   96  A    between atoms: _242  and  _245
REMARK   97  A    between atoms: _245  and  _246
REMARK   98  A    between atoms: _246  and  _247
REMARK   99  A    between atoms: _250  and  _252
REMARK  100  A    between atoms: _252  and  _253
REMARK  101  A    between atoms: _252  and  _255
REMARK  102  A    between atoms: _255  and  _256
REMARK  103  A    between atoms: _259  and  _261
REMARK  104  A    between atoms: _261  and  _262
REMARK  105  A    between atoms: _261  and  _264
REMARK  106  A    between atoms: _264  and  _265
REMARK  107  A    between atoms: _265  and  _266
REMARK  108  A    between atoms: _271  and  _273
REMARK  109  A    between atoms: _273  and  _274
REMARK  110  A    between atoms: _273  and  _276
REMARK  111  A    between atoms: _276  and  _277
REMARK  112  A    between atoms: _277  and  _278
REMARK  113  A    between atoms: _278  and  _279
REMARK  114  A    between atoms: _279  and  _280
REMARK  115  A    between atoms: _284  and  _286
REMARK  116  A    between atoms: _286  and  _287
REMARK  117  A    between atoms: _290  and  _292
REMARK  118  A    between atoms: _292  and  _293
REMARK  119  A    between atoms: _295  and  _297
REMARK  120  A    between atoms: _297  and  _298
REMARK  121  A    between atoms: _297  and  _300
REMARK  122  A    between atoms: _300  and  _301
REMARK  123  A    between atoms: _306  and  _308
REMARK  124  A    between atoms: _308  and  _309
REMARK  125  A    between atoms: _308  and  _311
REMARK  126  A    between atoms: _311  and  _312
REMARK  127  A    between atoms: _312  and  _313
REMARK  128  A    between atoms: _316  and  _318
REMARK  129  A    between atoms: _318  and  _319
REMARK  130  A    between atoms: _318  and  _321
REMARK  131  A    between atoms: _321  and  _322
REMARK  132  A    between atoms: _322  and  _323
REMARK  133  A    between atoms: _328  and  _330
REMARK  134  A    between atoms: _330  and  _331
REMARK  135  A    between atoms: _330  and  _333
REMARK  136  A    between atoms: _333  and  _334
REMARK  137  A    between atoms: _336  and  _338
REMARK  138  A    between atoms: _338  and  _339
REMARK  139  A    between atoms: _338  and  _341
REMARK  140  A    between atoms: _341  and  _342
REMARK  141  A    between atoms: _348  and  _350
REMARK  142  A    between atoms: _350  and  _351
REMARK  143  A    between atoms: _350  and  _353
REMARK  144  A    between atoms: _356  and  _358
REMARK  145  A    between atoms: _358  and  _359
REMARK  146  A    between atoms: _358  and  _361
REMARK  147  A    between atoms: _361  and  _362
REMARK  148  A    between atoms: _365  and  _367
REMARK  149  A    between atoms: _367  and  _368
REMARK  150  A    between atoms: _367  and  _370
REMARK  151  A    between atoms: _370  and  _371
REMARK  152  A    between atoms: _374  and  _376
REMARK  153  A    between atoms: _376  and  _377
REMARK  154  A    between atoms: _376  and  _379
REMARK  155  A    between atoms: _379  and  _380
REMARK  156  A    between atoms: _383  and  _385
REMARK  157  A    between atoms: _385  and  _386
REMARK  158  A    between atoms: _385  and  _388
REMARK  159  A    between atoms: _388  and  _389
REMARK  160  A    between atoms: _392  and  _394
REMARK  161  A    between atoms: _394  and  _395
REMARK  162  A    between atoms: _394  and  _397
REMARK  163  A    between atoms: _397  and  _398
REMARK  164  A    between atoms: _403  and  _404
REMARK  165  A    between atoms: _406  and  _408
REMARK  166  A    between atoms: _408  and  _409
REMARK  167  A    between atoms: _408  and  _411
REMARK  168  A    between atoms: _411  and  _412
REMARK  169  A    between atoms: _417  and  _418
REMARK  170  A    between atoms: _420  and  _422
REMARK  171  A    between atoms: _422  and  _423
REMARK  172  A    between atoms: _422  and  _425
REMARK  173  A    between atoms: _425  and  _426
REMARK  174  A    between atoms: _429  and  _431
REMARK  175  A    between atoms: _431  and  _432
REMARK  176  A    between atoms: _431  and  _434
REMARK  177  A    between atoms: _434  and  _435
REMARK  178  A    between atoms: _435  and  _436
REMARK  179  A    between atoms: _441  and  _443
REMARK  180  A    between atoms: _443  and  _444
REMARK  181  A    between atoms: _443  and  _446
REMARK  182  A    between atoms: _449  and  _451
REMARK  183  A    between atoms: _451  and  _452
REMARK  184  A    between atoms: _451  and  _454
REMARK  185  A    between atoms: _454  and  _455
REMARK  186  A    between atoms: _458  and  _460
REMARK  187  A    between atoms: _460  and  _461
REMARK  188  A    between atoms: _460  and  _463
REMARK  189  A    between atoms: _463  and  _464
REMARK  190  A    between atoms: _466  and  _468
REMARK  191  A    between atoms: _468  and  _469
REMARK  192  A    between atoms: _471  and  _473
REMARK  193  A    between atoms: _473  and  _474
REMARK  194  A    between atoms: _473  and  _476
REMARK  195  A    between atoms: _476  and  _477
REMARK  196  A    between atoms: _477  and  _772
REMARK  197  A    between atoms: _478  and  _480
REMARK  198  A    between atoms: _480  and  _481
REMARK  199  A    between atoms: _480  and  _483
REMARK  200  A    between atoms: _483  and  _484
REMARK  201  A    between atoms: _489  and  _490
REMARK  202  A    between atoms: _492  and  _494
REMARK  203  A    between atoms: _494  and  _495
REMARK  204  A    between atoms: _494  and  _497
REMARK  205  A    between atoms: _497  and  _498
REMARK  206  A    between atoms: _498  and  _499
REMARK  207  A    between atoms: _504  and  _506
REMARK  208  A    between atoms: _506  and  _507
REMARK  209  A    between atoms: _506  and  _509
REMARK  210  A    between atoms: _509  and  _510
REMARK  211  A    between atoms: _510  and  _511
REMARK  212  A    between atoms: _516  and  _518
REMARK  213  A    between atoms: _518  and  _519
REMARK  214  A    between atoms: _518  and  _521
REMARK  215  A    between atoms: _521  and  _522
REMARK  216  A    between atoms: _527  and  _528
REMARK  217  A    between atoms: _530  and  _532
REMARK  218  A    between atoms: _532  and  _533
REMARK  219  A    between atoms: _536  and  _538
REMARK  220  A    between atoms: _538  and  _539
REMARK  221  A    between atoms: _538  and  _541
REMARK  222  A    between atoms: _541  and  _542
REMARK  223  A    between atoms: _547  and  _548
REMARK  224  A    between atoms: _550  and  _552
REMARK  225  A    between atoms: _552  and  _553
REMARK  226  A    between atoms: _552  and  _555
REMARK  227  A    between atoms: _555  and  _556
REMARK  228  A    between atoms: _561  and  _562
REMARK  229  A    between atoms: _564  and  _566
REMARK  230  A    between atoms: _566  and  _567
REMARK  231  A    between atoms: _566  and  _569
REMARK  232  A    between atoms: _569  and  _570
REMARK  233  A    between atoms: _573  and  _575
REMARK  234  A    between atoms: _575  and  _576
REMARK  235  A    between atoms: _575  and  _578
REMARK  236  A    between atoms: _578  and  _579
REMARK  237  A    between atoms: _589  and  _591
REMARK  238  A    between atoms: _591  and  _592
REMARK  239  A    between atoms: _595  and  _597
REMARK  240  A    between atoms: _597  and  _598
REMARK  241  A    between atoms: _601  and  _603
REMARK  242  A    between atoms: _603  and  _604
REMARK  243  A    between atoms: _603  and  _606
REMARK  244  A    between atoms: _606  and  _607
REMARK  245  A    between atoms: _610  and  _612
REMARK  246  A    between atoms: _612  and  _613
REMARK  247  A    between atoms: _612  and  _615
REMARK  248  A    between atoms: _615  and  _616
REMARK  249  A    between atoms: _619  and  _621
REMARK  250  A    between atoms: _621  and  _622
REMARK  251  A    between atoms: _621  and  _624
REMARK  252  A    between atoms: _624  and  _625
REMARK  253  A    between atoms: _628  and  _630
REMARK  254  A    between atoms: _630  and  _631
REMARK  255  A    between atoms: _630  and  _633
REMARK  256  A    between atoms: _633  and  _634
REMARK  257  A    between atoms: _634  and  _635
REMARK  258  A    between atoms: _635  and  _636
REMARK  259  A    between atoms: _636  and  _637
REMARK  260  A    between atoms: _641  and  _643
REMARK  261  A    between atoms: _643  and  _644
REMARK  262  A    between atoms: _643  and  _646
REMARK  263  A    between atoms: _646  and  _647
REMARK  264  A    between atoms: _652  and  _654
REMARK  265  A    between atoms: _654  and  _655
REMARK  266  A    between atoms: _654  and  _657
REMARK  267  A    between atoms: _657  and  _658
REMARK  268  A    between atoms: _658  and  _659
REMARK  269  A    between atoms: _659  and  _660
REMARK  270  A    between atoms: _660  and  _661
REMARK  271  A    between atoms: _665  and  _667
REMARK  272  A    between atoms: _667  and  _668
REMARK  273  A    between atoms: _667  and  _670
REMARK  274  A    between atoms: _670  and  _671
REMARK  275  A    between atoms: _681  and  _683
REMARK  276  A    between atoms: _683  and  _684
REMARK  277  A    between atoms: _687  and  _689
REMARK  278  A    between atoms: _689  and  _690
REMARK  279  A    between atoms: _692  and  _694
REMARK  280  A    between atoms: _694  and  _695
REMARK  281  A    between atoms: _694  and  _697
REMARK  282  A    between atoms: _697  and  _698
REMARK  283  A    between atoms: _698  and  _699
REMARK  284  A    between atoms: _702  and  _704
REMARK  285  A    between atoms: _704  and  _705
REMARK  286  A    between atoms: _708  and  _710
REMARK  287  A    between atoms: _710  and  _711
REMARK  288  A    between atoms: _710  and  _713
REMARK  289  A    between atoms: _713  and  _714
REMARK  290  A    between atoms: _714  and  _715
REMARK  291  A    between atoms: _715  and  _716
REMARK  292  A    between atoms: _725  and  _727
REMARK  293  A    between atoms: _727  and  _728
REMARK  294  A    between atoms: _727  and  _730
REMARK  295  A    between atoms: _730  and  _731
REMARK  296  A    between atoms: _734  and  _736
REMARK  297  A    between atoms: _736  and  _737
REMARK  298  A    between atoms: _736  and  _739
REMARK  299  A    between atoms: _739  and  _740
REMARK  300  A    between atoms: _745  and  _746
REMARK  301  A    between atoms: _748  and  _750
REMARK  302  A    between atoms: _750  and  _751
REMARK  303  A    between atoms: _750  and  _753
REMARK  304  A    between atoms: _753  and  _754
REMARK  305  A    between atoms: _757  and  _759
REMARK  306  A    between atoms: _759  and  _760
REMARK  307  A    between atoms: _759  and  _762
REMARK  308  A    between atoms: _762  and  _763
REMARK  309  A    between atoms: _766  and  _768
REMARK  310  A    between atoms: _768  and  _769
REMARK  311  A    between atoms: _768  and  _771
REMARK  312  A    between atoms: _771  and  _772
REMARK  313  A    between atoms: _773  and  _775
REMARK  314  A    between atoms: _775  and  _776
REMARK  315  A    between atoms: _775  and  _778
REMARK  316  A    between atoms: _781  and  _783
REMARK  317  A    between atoms: _783  and  _784
REMARK  318  A    between atoms: _783  and  _786
REMARK  319  A    between atoms: _786  and  _787
REMARK  320  A    between atoms: _787  and  _788
REMARK  321  A    between atoms: _791  and  _793
REMARK  322  A    between atoms: _793  and  _794
REMARK  323  A    between atoms: _793  and  _796
REMARK  324  A    between atoms: _796  and  _797
REMARK  325  A    between atoms: _807  and  _809
REMARK  326  A    between atoms: _809  and  _810
REMARK  327  A    between atoms: _809  and  _812
REMARK  328  A    between atoms: _812  and  _813
REMARK  329  A    between atoms: _816  and  _818
REMARK  330  A    between atoms: _818  and  _819
REMARK  331  A    between atoms: _818  and  _821
REMARK  332  A    between atoms: _821  and  _822
REMARK  333  A    between atoms: _822  and  _823
REMARK  334  A    between atoms: _823  and  _824
REMARK  335  A    between atoms: _833  and  _835
REMARK  336  A    between atoms: _835  and  _836
REMARK  337  A    between atoms: _835  and  _838
REMARK  338  A    between atoms: _838  and  _839
REMARK  339  A    between atoms: _844  and  _845
REMARK                            x       y       z     vdW  Elec       q    Type
REMARK                         _______ _______ _______ _____ _____    ______ ____
ROOT
ATOM      1  O   HOH     1      39.660  61.212  -1.251  0.00  0.00    +0.000 OA
ENDROOT
TORSDOF 0
REMARK  Name = ../refined-set-2016/1fzo/1fzo_pocket.pdb
REMARK  339 active torsions:
REMARK  status: ('A' for Active; 'I' for Inactive)
REMARK    1  A    between atoms: _1  and  _3
REMARK    2  A    between atoms: _3  and  _4
REMARK    3  A    between atoms: _3  and  _6
REMARK    4  A    between atoms: _6  and  _7
REMARK    5  A    between atoms: _10  and  _12
REMARK    6  A    between atoms: _12  and  _13
REMARK    7  A    between atoms: _12  and  _15
REMARK    8  A    between atoms: _15  and  _16
REMARK    9  A    between atoms: _16  and  _17
REMARK   10  A    between atoms: _17  and  _18
REMARK   11  A    between atoms: _27  and  _29
REMARK   12  A    between atoms: _29  and  _30
REMARK   13  A    between atoms: _29  and  _32
REMARK   14  A    between atoms: _32  and  _33
REMARK   15  A    between atoms: _38  and  _39
REMARK   16  A    between atoms: _41  and  _43
REMARK   17  A    between atoms: _43  and  _44
REMARK   18  A    between atoms: _43  and  _46
REMARK   19  A    between atoms: _46  and  _47
REMARK   20  A    between atoms: _53  and  _55
REMARK   21  A    between atoms: _55  and  _56
REMARK   22  A    between atoms: _55  and  _58
REMARK   23  A    between atoms: _61  and  _63
REMARK   24  A    between atoms: _63  and  _64
REMARK   25  A    between atoms: _63  and  _66
REMARK   26  A    between atoms: _66  and  _67
REMARK   27  A    between atoms: _70  and  _72
REMARK   28  A    between atoms: _72  and  _73
REMARK   29  A    between atoms: _72  and  _75
REMARK   30  A    between atoms: _75  and  _76
REMARK   31  A    between atoms: _82  and  _84
REMARK   32  A    between atoms: _84  and  _85
REMARK   33  A    between atoms: _84  and  _87
REMARK   34  A    between atoms: _87  and  _88
REMARK   35  A    between atoms: _91  and  _93
REMARK   36  A    between atoms: _93  and  _94
REMARK   37  A    between atoms: _93  and  _96
REMARK   38  A    between atoms: _96  and  _97
REMARK   39  A    between atoms: _99  and  _101
REMARK   40  A    between atoms: _101  and  _102
REMARK   41  A    between atoms: _101  and  _104
REMARK   42  A    between atoms: _107  and  _109
REMARK   43  A    between atoms: _109  and  _110
REMARK   44  A    between atoms: _112  and  _114
REMARK   45  A    between atoms: _114  and  _115
REMARK   46  A    between atoms: _114  and  _117
REMARK   47  A    between atoms: _120  and  _122
REMARK   48  A    between atoms: _122  and  _123
REMARK   49  A    between atoms: _122  and  _125
REMARK   50  A    between atoms: _125  and  _126
REMARK   51  A    between atoms: _132  and  _134
REMARK   52  A    between atoms: _134  and  _135
REMARK   53  A    between atoms: _134  and  _137
REMARK   54  A    between atoms: _140  and  _142
REMARK   55  A    between atoms: _142  and  _143
REMARK   56  A    between atoms: _142  and  _145
REMARK   57  A    between atoms: _145  and  _146
REMARK   58  A    between atoms: _151  and  _152
REMARK   59  A    between atoms: _154  and  _156
REMARK   60  A    between atoms: _156  and  _157
REMARK   61  A    between atoms: _156  and  _159
REMARK   62  A    between atoms: _159  and  _160
REMARK   63  A    between atoms: _160  and  _161
REMARK   64  A    between atoms: _163  and  _165
REMARK   65  A    between atoms: _165  and  _166
REMARK   66  A    between atoms: _165  and  _168
REMARK   67  A    between atoms: _168  and  _169
REMARK   68  A    between atoms: _169  and  _170
REMARK   69  A    between atoms: _173  and  _175
REMARK   70  A    between atoms: _175  and  _176
REMARK   71  A    between atoms: _175  and  _178
REMARK   72  A    between atoms: _178  and  _179
REMARK   73  A    between atoms: _179  and  _180
REMARK   74  A    between atoms: _183  and  _185
REMARK   75  A    between atoms: _185  and  _186
REMARK   76  A    between atoms: _185  and  _188
REMARK   77  A    between atoms: _188  and  _189
REMARK   78  A    between atoms: _194  and  _195
REMARK   79  A    between atoms: _197  and  _199
REMARK   80  A    between atoms: _199  and  _200
REMARK   81  A    between atoms: _199  and  _202
REMARK   82  A    between atoms: _202  and  _203
REMARK   83  A    between atoms: _213  and  _215
REMARK   84  A    between atoms: _215  and  _216
REMARK   85  A    between atoms: _215  and  _218
REMARK   86  A    between atoms: _218  and  _219
REMARK   87  A    between atoms: _219  and  _220
REMARK   88  A    between atoms: _223  and  _225
REMARK   89  A    between atoms: _225  and  _226
REMARK   90  A    between atoms: _225  and  _228
REMARK   91  A    between atoms: _228  and  _229
REMARK   92  A    between atoms: _229  and  _230
REMARK   93  A    between atoms: _230  and  _231
REMARK   94  A    between atoms: _240  and  _242
REMARK   95  A    between atoms: _242  and  _243
REMARK   96  A    between atoms: _242  and  _245
REMARK   97  A    between atoms: _245  and  _246
REMARK   98  A    between atoms: _246  and  _247
REMARK   99  A    between atoms: _250  and  _252
REMARK  100  A    between atoms: _252  and  _253
REMARK  101  A    between atoms: _252  and  _255
REMARK  102  A    between atoms: _255  and  _256
REMARK  103  A    between atoms: _259  and  _261
REMARK  104  A    between atoms: _261  and  _262
REMARK  105  A    between atoms: _261  and  _264
REMARK  106  A    between atoms: _264  and  _265
REMARK  107  A    between atoms: _265  and  _266
REMARK  108  A    between atoms: _271  and  _273
REMARK  109  A    between atoms: _273  and  _274
REMARK  110  A    between atoms: _273  and  _276
REMARK  111  A    between atoms: _276  and  _277
REMARK  112  A    between atoms: _277  and  _278
REMARK  113  A    between atoms: _278  and  _279
REMARK  114  A    between atoms: _279  and  _280
REMARK  115  A    between atoms: _284  and  _286
REMARK  116  A    between atoms: _286  and  _287
REMARK  117  A    between atoms: _290  and  _292
REMARK  118  A    between atoms: _292  and  _293
REMARK  119  A    between atoms: _295  and  _297
REMARK  120  A    between atoms: _297  and  _298
REMARK  121  A    between atoms: _297  and  _300
REMARK  122  A    between atoms: _300  and  _301
REMARK  123  A    between atoms: _306  and  _308
REMARK  124  A    between atoms: _308  and  _309
REMARK  125  A    between atoms: _308  and  _311
REMARK  126  A    between atoms: _311  and  _312
REMARK  127  A    between atoms: _312  and  _313
REMARK  128  A    between atoms: _316  and  _318
REMARK  129  A    between atoms: _318  and  _319
REMARK  130  A    between atoms: _318  and  _321
REMARK  131  A    between atoms: _321  and  _322
REMARK  132  A    between atoms: _322  and  _323
REMARK  133  A    between atoms: _328  and  _330
REMARK  134  A    between atoms: _330  and  _331
REMARK  135  A    between atoms: _330  and  _333
REMARK  136  A    between atoms: _333  and  _334
REMARK  137  A    between atoms: _336  and  _338
REMARK  138  A    between atoms: _338  and  _339
REMARK  139  A    between atoms: _338  and  _341
REMARK  140  A    between atoms: _341  and  _342
REMARK  141  A    between atoms: _348  and  _350
REMARK  142  A    between atoms: _350  and  _351
REMARK  143  A    between atoms: _350  and  _353
REMARK  144  A    between atoms: _356  and  _358
REMARK  145  A    between atoms: _358  and  _359
REMARK  146  A    between atoms: _358  and  _361
REMARK  147  A    between atoms: _361  and  _362
REMARK  148  A    between atoms: _365  and  _367
REMARK  149  A    between atoms: _367  and  _368
REMARK  150  A    between atoms: _367  and  _370
REMARK  151  A    between atoms: _370  and  _371
REMARK  152  A    between atoms: _374  and  _376
REMARK  153  A    between atoms: _376  and  _377
REMARK  154  A    between atoms: _376  and  _379
REMARK  155  A    between atoms: _379  and  _380
REMARK  156  A    between atoms: _383  and  _385
REMARK  157  A    between atoms: _385  and  _386
REMARK  158  A    between atoms: _385  and  _388
REMARK  159  A    between atoms: _388  and  _389
REMARK  160  A    between atoms: _392  and  _394
REMARK  161  A    between atoms: _394  and  _395
REMARK  162  A    between atoms: _394  and  _397
REMARK  163  A    between atoms: _397  and  _398
REMARK  164  A    between atoms: _403  and  _404
REMARK  165  A    between atoms: _406  and  _408
REMARK  166  A    between atoms: _408  and  _409
REMARK  167  A    between atoms: _408  and  _411
REMARK  168  A    between atoms: _411  and  _412
REMARK  169  A    between atoms: _417  and  _418
REMARK  170  A    between atoms: _420  and  _422
REMARK  171  A    between atoms: _422  and  _423
REMARK  172  A    between atoms: _422  and  _425
REMARK  173  A    between atoms: _425  and  _426
REMARK  174  A    between atoms: _429  and  _431
REMARK  175  A    between atoms: _431  and  _432
REMARK  176  A    between atoms: _431  and  _434
REMARK  177  A    between atoms: _434  and  _435
REMARK  178  A    between atoms: _435  and  _436
REMARK  179  A    between atoms: _441  and  _443
REMARK  180  A    between atoms: _443  and  _444
REMARK  181  A    between atoms: _443  and  _446
REMARK  182  A    between atoms: _449  and  _451
REMARK  183  A    between atoms: _451  and  _452
REMARK  184  A    between atoms: _451  and  _454
REMARK  185  A    between atoms: _454  and  _455
REMARK  186  A    between atoms: _458  and  _460
REMARK  187  A    between atoms: _460  and  _461
REMARK  188  A    between atoms: _460  and  _463
REMARK  189  A    between atoms: _463  and  _464
REMARK  190  A    between atoms: _466  and  _468
REMARK  191  A    between atoms: _468  and  _469
REMARK  192  A    between atoms: _471  and  _473
REMARK  193  A    between atoms: _473  and  _474
REMARK  194  A    between atoms: _473  and  _476
REMARK  195  A    between atoms: _476  and  _477
REMARK  196  A    between atoms: _477  and  _772
REMARK  197  A    between atoms: _478  and  _480
REMARK  198  A    between atoms: _480  and  _481
REMARK  199  A    between atoms: _480  and  _483
REMARK  200  A    between atoms: _483  and  _484
REMARK  201  A    between atoms: _489  and  _490
REMARK  202  A    between atoms: _492  and  _494
REMARK  203  A    between atoms: _494  and  _495
REMARK  204  A    between atoms: _494  and  _497
REMARK  205  A    between atoms: _497  and  _498
REMARK  206  A    between atoms: _498  and  _499
REMARK  207  A    between atoms: _504  and  _506
REMARK  208  A    between atoms: _506  and  _507
REMARK  209  A    between atoms: _506  and  _509
REMARK  210  A    between atoms: _509  and  _510
REMARK  211  A    between atoms: _510  and  _511
REMARK  212  A    between atoms: _516  and  _518
REMARK  213  A    between atoms: _518  and  _519
REMARK  214  A    between atoms: _518  and  _521
REMARK  215  A    between atoms: _521  and  _522
REMARK  216  A    between atoms: _527  and  _528
REMARK  217  A    between atoms: _530  and  _532
REMARK  218  A    between atoms: _532  and  _533
REMARK  219  A    between atoms: _536  and  _538
REMARK  220  A    between atoms: _538  and  _539
REMARK  221  A    between atoms: _538  and  _541
REMARK  222  A    between atoms: _541  and  _542
REMARK  223  A    between atoms: _547  and  _548
REMARK  224  A    between atoms: _550  and  _552
REMARK  225  A    between atoms: _552  and  _553
REMARK  226  A    between atoms: _552  and  _555
REMARK  227  A    between atoms: _555  and  _556
REMARK  228  A    between atoms: _561  and  _562
REMARK  229  A    between atoms: _564  and  _566
REMARK  230  A    between atoms: _566  and  _567
REMARK  231  A    between atoms: _566  and  _569
REMARK  232  A    between atoms: _569  and  _570
REMARK  233  A    between atoms: _573  and  _575
REMARK  234  A    between atoms: _575  and  _576
REMARK  235  A    between atoms: _575  and  _578
REMARK  236  A    between atoms: _578  and  _579
REMARK  237  A    between atoms: _589  and  _591
REMARK  238  A    between atoms: _591  and  _592
REMARK  239  A    between atoms: _595  and  _597
REMARK  240  A    between atoms: _597  and  _598
REMARK  241  A    between atoms: _601  and  _603
REMARK  242  A    between atoms: _603  and  _604
REMARK  243  A    between atoms: _603  and  _606
REMARK  244  A    between atoms: _606  and  _607
REMARK  245  A    between atoms: _610  and  _612
REMARK  246  A    between atoms: _612  and  _613
REMARK  247  A    between atoms: _612  and  _615
REMARK  248  A    between atoms: _615  and  _616
REMARK  249  A    between atoms: _619  and  _621
REMARK  250  A    between atoms: _621  and  _622
REMARK  251  A    between atoms: _621  and  _624
REMARK  252  A    between atoms: _624  and  _625
REMARK  253  A    between atoms: _628  and  _630
REMARK  254  A    between atoms: _630  and  _631
REMARK  255  A    between atoms: _630  and  _633
REMARK  256  A    between atoms: _633  and  _634
REMARK  257  A    between atoms: _634  and  _635
REMARK  258  A    between atoms: _635  and  _636
REMARK  259  A    between atoms: _636  and  _637
REMARK  260  A    between atoms: _641  and  _643
REMARK  261  A    between atoms: _643  and  _644
REMARK  262  A    between atoms: _643  and  _646
REMARK  263  A    between atoms: _646  and  _647
REMARK  264  A    between atoms: _652  and  _654
REMARK  265  A    between atoms: _654  and  _655
REMARK  266  A    between atoms: _654  and  _657
REMARK  267  A    between atoms: _657  and  _658
REMARK  268  A    between atoms: _658  and  _659
REMARK  269  A    between atoms: _659  and  _660
REMARK  270  A    between atoms: _660  and  _661
REMARK  271  A    between atoms: _665  and  _667
REMARK  272  A    between atoms: _667  and  _668
REMARK  273  A    between atoms: _667  and  _670
REMARK  274  A    between atoms: _670  and  _671
REMARK  275  A    between atoms: _681  and  _683
REMARK  276  A    between atoms: _683  and  _684
REMARK  277  A    between atoms: _687  and  _689
REMARK  278  A    between atoms: _689  and  _690
REMARK  279  A    between atoms: _692  and  _694
REMARK  280  A    between atoms: _694  and  _695
REMARK  281  A    between atoms: _694  and  _697
REMARK  282  A    between atoms: _697  and  _698
REMARK  283  A    between atoms: _698  and  _699
REMARK  284  A    between atoms: _702  and  _704
REMARK  285  A    between atoms: _704  and  _705
REMARK  286  A    between atoms: _708  and  _710
REMARK  287  A    between atoms: _710  and  _711
REMARK  288  A    between atoms: _710  and  _713
REMARK  289  A    between atoms: _713  and  _714
REMARK  290  A    between atoms: _714  and  _715
REMARK  291  A    between atoms: _715  and  _716
REMARK  292  A    between atoms: _725  and  _727
REMARK  293  A    between atoms: _727  and  _728
REMARK  294  A    between atoms: _727  and  _730
REMARK  295  A    between atoms: _730  and  _731
REMARK  296  A    between atoms: _734  and  _736
REMARK  297  A    between atoms: _736  and  _737
REMARK  298  A    between atoms: _736  and  _739
REMARK  299  A    between atoms: _739  and  _740
REMARK  300  A    between atoms: _745  and  _746
REMARK  301  A    between atoms: _748  and  _750
REMARK  302  A    between atoms: _750  and  _751
REMARK  303  A    between atoms: _750  and  _753
REMARK  304  A    between atoms: _753  and  _754
REMARK  305  A    between atoms: _757  and  _759
REMARK  306  A    between atoms: _759  and  _760
REMARK  307  A    between atoms: _759  and  _762
REMARK  308  A    between atoms: _762  and  _763
REMARK  309  A    between atoms: _766  and  _768
REMARK  310  A    between atoms: _768  and  _769
REMARK  311  A    between atoms: _768  and  _771
REMARK  312  A    between atoms: _771  and  _772
REMARK  313  A    between atoms: _773  and  _775
REMARK  314  A    between atoms: _775  and  _776
REMARK  315  A    between atoms: _775  and  _778
REMARK  316  A    between atoms: _781  and  _783
REMARK  317  A    between atoms: _783  and  _784
REMARK  318  A    between atoms: _783  and  _786
REMARK  319  A    between atoms: _786  and  _787
REMARK  320  A    between atoms: _787  and  _788
REMARK  321  A    between atoms: _791  and  _793
REMARK  322  A    between atoms: _793  and  _794
REMARK  323  A    between atoms: _793  and  _796
REMARK  324  A    between atoms: _796  and  _797
REMARK  325  A    between atoms: _807  and  _809
REMARK  326  A    between atoms: _809  and  _810
REMARK  327  A    between atoms: _809  and  _812
REMARK  328  A    between atoms: _812  and  _813
REMARK  329  A    between atoms: _816  and  _818
REMARK  330  A    between atoms: _818  and  _819
REMARK  331  A    between atoms: _818  and  _821
REMARK  332  A    between atoms: _821  and  _822
REMARK  333  A    between atoms: _822  and  _823
REMARK  334  A    between atoms: _823  and  _824
REMARK  335  A    between atoms: _833  and  _835
REMARK  336  A    between atoms: _835  and  _836
REMARK  337  A    between atoms: _835  and  _838
REMARK  338  A    between atoms: _838  and  _839
REMARK  339  A    between atoms: _844  and  _845
REMARK                            x       y       z     vdW  Elec       q    Type
REMARK                         _______ _______ _______ _____ _____    ______ ____
ROOT
ATOM      1  O   HOH     1      46.133  59.402  -9.332  0.00  0.00    +0.000 OA
ENDROOT
TORSDOF 0
REMARK  Name = ../refined-set-2016/1fzo/1fzo_pocket.pdb
REMARK  339 active torsions:
REMARK  status: ('A' for Active; 'I' for Inactive)
REMARK    1  A    between atoms: _1  and  _3
REMARK    2  A    between atoms: _3  and  _4
REMARK    3  A    between atoms: _3  and  _6
REMARK    4  A    between atoms: _6  and  _7
REMARK    5  A    between atoms: _10  and  _12
REMARK    6  A    between atoms: _12  and  _13
REMARK    7  A    between atoms: _12  and  _15
REMARK    8  A    between atoms: _15  and  _16
REMARK    9  A    between atoms: _16  and  _17
REMARK   10  A    between atoms: _17  and  _18
REMARK   11  A    between atoms: _27  and  _29
REMARK   12  A    between atoms: _29  and  _30
REMARK   13  A    between atoms: _29  and  _32
REMARK   14  A    between atoms: _32  and  _33
REMARK   15  A    between atoms: _38  and  _39
REMARK   16  A    between atoms: _41  and  _43
REMARK   17  A    between atoms: _43  and  _44
REMARK   18  A    between atoms: _43  and  _46
REMARK   19  A    between atoms: _46  and  _47
REMARK   20  A    between atoms: _53  and  _55
REMARK   21  A    between atoms: _55  and  _56
REMARK   22  A    between atoms: _55  and  _58
REMARK   23  A    between atoms: _61  and  _63
REMARK   24  A    between atoms: _63  and  _64
REMARK   25  A    between atoms: _63  and  _66
REMARK   26  A    between atoms: _66  and  _67
REMARK   27  A    between atoms: _70  and  _72
REMARK   28  A    between atoms: _72  and  _73
REMARK   29  A    between atoms: _72  and  _75
REMARK   30  A    between atoms: _75  and  _76
REMARK   31  A    between atoms: _82  and  _84
REMARK   32  A    between atoms: _84  and  _85
REMARK   33  A    between atoms: _84  and  _87
REMARK   34  A    between atoms: _87  and  _88
REMARK   35  A    between atoms: _91  and  _93
REMARK   36  A    between atoms: _93  and  _94
REMARK   37  A    between atoms: _93  and  _96
REMARK   38  A    between atoms: _96  and  _97
REMARK   39  A    between atoms: _99  and  _101
REMARK   40  A    between atoms: _101  and  _102
REMARK   41  A    between atoms: _101  and  _104
REMARK   42  A    between atoms: _107  and  _109
REMARK   43  A    between atoms: _109  and  _110
REMARK   44  A    between atoms: _112  and  _114
REMARK   45  A    between atoms: _114  and  _115
REMARK   46  A    between atoms: _114  and  _117
REMARK   47  A    between atoms: _120  and  _122
REMARK   48  A    between atoms: _122  and  _123
REMARK   49  A    between atoms: _122  and  _125
REMARK   50  A    between atoms: _125  and  _126
REMARK   51  A    between atoms: _132  and  _134
REMARK   52  A    between atoms: _134  and  _135
REMARK   53  A    between atoms: _134  and  _137
REMARK   54  A    between atoms: _140  and  _142
REMARK   55  A    between atoms: _142  and  _143
REMARK   56  A    between atoms: _142  and  _145
REMARK   57  A    between atoms: _145  and  _146
REMARK   58  A    between atoms: _151  and  _152
REMARK   59  A    between atoms: _154  and  _156
REMARK   60  A    between atoms: _156  and  _157
REMARK   61  A    between atoms: _156  and  _159
REMARK   62  A    between atoms: _159  and  _160
REMARK   63  A    between atoms: _160  and  _161
REMARK   64  A    between atoms: _163  and  _165
REMARK   65  A    between atoms: _165  and  _166
REMARK   66  A    between atoms: _165  and  _168
REMARK   67  A    between atoms: _168  and  _169
REMARK   68  A    between atoms: _169  and  _170
REMARK   69  A    between atoms: _173  and  _175
REMARK   70  A    between atoms: _175  and  _176
REMARK   71  A    between atoms: _175  and  _178
REMARK   72  A    between atoms: _178  and  _179
REMARK   73  A    between atoms: _179  and  _180
REMARK   74  A    between atoms: _183  and  _185
REMARK   75  A    between atoms: _185  and  _186
REMARK   76  A    between atoms: _185  and  _188
REMARK   77  A    between atoms: _188  and  _189
REMARK   78  A    between atoms: _194  and  _195
REMARK   79  A    between atoms: _197  and  _199
REMARK   80  A    between atoms: _199  and  _200
REMARK   81  A    between atoms: _199  and  _202
REMARK   82  A    between atoms: _202  and  _203
REMARK   83  A    between atoms: _213  and  _215
REMARK   84  A    between atoms: _215  and  _216
REMARK   85  A    between atoms: _215  and  _218
REMARK   86  A    between atoms: _218  and  _219
REMARK   87  A    between atoms: _219  and  _220
REMARK   88  A    between atoms: _223  and  _225
REMARK   89  A    between atoms: _225  and  _226
REMARK   90  A    between atoms: _225  and  _228
REMARK   91  A    between atoms: _228  and  _229
REMARK   92  A    between atoms: _229  and  _230
REMARK   93  A    between atoms: _230  and  _231
REMARK   94  A    between atoms: _240  and  _242
REMARK   95  A    between atoms: _242  and  _243
REMARK   96  A    between atoms: _242  and  _245
REMARK   97  A    between atoms: _245  and  _246
REMARK   98  A    between atoms: _246  and  _247
REMARK   99  A    between atoms: _250  and  _252
REMARK  100  A    between atoms: _252  and  _253
REMARK  101  A    between atoms: _252  and  _255
REMARK  102  A    between atoms: _255  and  _256
REMARK  103  A    between atoms: _259  and  _261
REMARK  104  A    between atoms: _261  and  _262
REMARK  105  A    between atoms: _261  and  _264
REMARK  106  A    between atoms: _264  and  _265
REMARK  107  A    between atoms: _265  and  _266
REMARK  108  A    between atoms: _271  and  _273
REMARK  109  A    between atoms: _273  and  _274
REMARK  110  A    between atoms: _273  and  _276
REMARK  111  A    between atoms: _276  and  _277
REMARK  112  A    between atoms: _277  and  _278
REMARK  113  A    between atoms: _278  and  _279
REMARK  114  A    between atoms: _279  and  _280
REMARK  115  A    between atoms: _284  and  _286
REMARK  116  A    between atoms: _286  and  _287
REMARK  117  A    between atoms: _290  and  _292
REMARK  118  A    between atoms: _292  and  _293
REMARK  119  A    between atoms: _295  and  _297
REMARK  120  A    between atoms: _297  and  _298
REMARK  121  A    between atoms: _297  and  _300
REMARK  122  A    between atoms: _300  and  _301
REMARK  123  A    between atoms: _306  and  _308
REMARK  124  A    between atoms: _308  and  _309
REMARK  125  A    between atoms: _308  and  _311
REMARK  126  A    between atoms: _311  and  _312
REMARK  127  A    between atoms: _312  and  _313
REMARK  128  A    between atoms: _316  and  _318
REMARK  129  A    between atoms: _318  and  _319
REMARK  130  A    between atoms: _318  and  _321
REMARK  131  A    between atoms: _321  and  _322
REMARK  132  A    between atoms: _322  and  _323
REMARK  133  A    between atoms: _328  and  _330
REMARK  134  A    between atoms: _330  and  _331
REMARK  135  A    between atoms: _330  and  _333
REMARK  136  A    between atoms: _333  and  _334
REMARK  137  A    between atoms: _336  and  _338
REMARK  138  A    between atoms: _338  and  _339
REMARK  139  A    between atoms: _338  and  _341
REMARK  140  A    between atoms: _341  and  _342
REMARK  141  A    between atoms: _348  and  _350
REMARK  142  A    between atoms: _350  and  _351
REMARK  143  A    between atoms: _350  and  _353
REMARK  144  A    between atoms: _356  and  _358
REMARK  145  A    between atoms: _358  and  _359
REMARK  146  A    between atoms: _358  and  _361
REMARK  147  A    between atoms: _361  and  _362
REMARK  148  A    between atoms: _365  and  _367
REMARK  149  A    between atoms: _367  and  _368
REMARK  150  A    between atoms: _367  and  _370
REMARK  151  A    between atoms: _370  and  _371
REMARK  152  A    between atoms: _374  and  _376
REMARK  153  A    between atoms: _376  and  _377
REMARK  154  A    between atoms: _376  and  _379
REMARK  155  A    between atoms: _379  and  _380
REMARK  156  A    between atoms: _383  and  _385
REMARK  157  A    between atoms: _385  and  _386
REMARK  158  A    between atoms: _385  and  _388
REMARK  159  A    between atoms: _388  and  _389
REMARK  160  A    between atoms: _392  and  _394
REMARK  161  A    between atoms: _394  and  _395
REMARK  162  A    between atoms: _394  and  _397
REMARK  163  A    between atoms: _397  and  _398
REMARK  164  A    between atoms: _403  and  _404
REMARK  165  A    between atoms: _406  and  _408
REMARK  166  A    between atoms: _408  and  _409
REMARK  167  A    between atoms: _408  and  _411
REMARK  168  A    between atoms: _411  and  _412
REMARK  169  A    between atoms: _417  and  _418
REMARK  170  A    between atoms: _420  and  _422
REMARK  171  A    between atoms: _422  and  _423
REMARK  172  A    between atoms: _422  and  _425
REMARK  173  A    between atoms: _425  and  _426
REMARK  174  A    between atoms: _429  and  _431
REMARK  175  A    between atoms: _431  and  _432
REMARK  176  A    between atoms: _431  and  _434
REMARK  177  A    between atoms: _434  and  _435
REMARK  178  A    between atoms: _435  and  _436
REMARK  179  A    between atoms: _441  and  _443
REMARK  180  A    between atoms: _443  and  _444
REMARK  181  A    between atoms: _443  and  _446
REMARK  182  A    between atoms: _449  and  _451
REMARK  183  A    between atoms: _451  and  _452
REMARK  184  A    between atoms: _451  and  _454
REMARK  185  A    between atoms: _454  and  _455
REMARK  186  A    between atoms: _458  and  _460
REMARK  187  A    between atoms: _460  and  _461
REMARK  188  A    between atoms: _460  and  _463
REMARK  189  A    between atoms: _463  and  _464
REMARK  190  A    between atoms: _466  and  _468
REMARK  191  A    between atoms: _468  and  _469
REMARK  192  A    between atoms: _471  and  _473
REMARK  193  A    between atoms: _473  and  _474
REMARK  194  A    between atoms: _473  and  _476
REMARK  195  A    between atoms: _476  and  _477
REMARK  196  A    between atoms: _477  and  _772
REMARK  197  A    between atoms: _478  and  _480
REMARK  198  A    between atoms: _480  and  _481
REMARK  199  A    between atoms: _480  and  _483
REMARK  200  A    between atoms: _483  and  _484
REMARK  201  A    between atoms: _489  and  _490
REMARK  202  A    between atoms: _492  and  _494
REMARK  203  A    between atoms: _494  and  _495
REMARK  204  A    between atoms: _494  and  _497
REMARK  205  A    between atoms: _497  and  _498
REMARK  206  A    between atoms: _498  and  _499
REMARK  207  A    between atoms: _504  and  _506
REMARK  208  A    between atoms: _506  and  _507
REMARK  209  A    between atoms: _506  and  _509
REMARK  210  A    between atoms: _509  and  _510
REMARK  211  A    between atoms: _510  and  _511
REMARK  212  A    between atoms: _516  and  _518
REMARK  213  A    between atoms: _518  and  _519
REMARK  214  A    between atoms: _518  and  _521
REMARK  215  A    between atoms: _521  and  _522
REMARK  216  A    between atoms: _527  and  _528
REMARK  217  A    between atoms: _530  and  _532
REMARK  218  A    between atoms: _532  and  _533
REMARK  219  A    between atoms: _536  and  _538
REMARK  220  A    between atoms: _538  and  _539
REMARK  221  A    between atoms: _538  and  _541
REMARK  222  A    between atoms: _541  and  _542
REMARK  223  A    between atoms: _547  and  _548
REMARK  224  A    between atoms: _550  and  _552
REMARK  225  A    between atoms: _552  and  _553
REMARK  226  A    between atoms: _552  and  _555
REMARK  227  A    between atoms: _555  and  _556
REMARK  228  A    between atoms: _561  and  _562
REMARK  229  A    between atoms: _564  and  _566
REMARK  230  A    between atoms: _566  and  _567
REMARK  231  A    between atoms: _566  and  _569
REMARK  232  A    between atoms: _569  and  _570
REMARK  233  A    between atoms: _573  and  _575
REMARK  234  A    between atoms: _575  and  _576
REMARK  235  A    between atoms: _575  and  _578
REMARK  236  A    between atoms: _578  and  _579
REMARK  237  A    between atoms: _589  and  _591
REMARK  238  A    between atoms: _591  and  _592
REMARK  239  A    between atoms: _595  and  _597
REMARK  240  A    between atoms: _597  and  _598
REMARK  241  A    between atoms: _601  and  _603
REMARK  242  A    between atoms: _603  and  _604
REMARK  243  A    between atoms: _603  and  _606
REMARK  244  A    between atoms: _606  and  _607
REMARK  245  A    between atoms: _610  and  _612
REMARK  246  A    between atoms: _612  and  _613
REMARK  247  A    between atoms: _612  and  _615
REMARK  248  A    between atoms: _615  and  _616
REMARK  249  A    between atoms: _619  and  _621
REMARK  250  A    between atoms: _621  and  _622
REMARK  251  A    between atoms: _621  and  _624
REMARK  252  A    between atoms: _624  and  _625
REMARK  253  A    between atoms: _628  and  _630
REMARK  254  A    between atoms: _630  and  _631
REMARK  255  A    between atoms: _630  and  _633
REMARK  256  A    between atoms: _633  and  _634
REMARK  257  A    between atoms: _634  and  _635
REMARK  258  A    between atoms: _635  and  _636
REMARK  259  A    between atoms: _636  and  _637
REMARK  260  A    between atoms: _641  and  _643
REMARK  261  A    between atoms: _643  and  _644
REMARK  262  A    between atoms: _643  and  _646
REMARK  263  A    between atoms: _646  and  _647
REMARK  264  A    between atoms: _652  and  _654
REMARK  265  A    between atoms: _654  and  _655
REMARK  266  A    between atoms: _654  and  _657
REMARK  267  A    between atoms: _657  and  _658
REMARK  268  A    between atoms: _658  and  _659
REMARK  269  A    between atoms: _659  and  _660
REMARK  270  A    between atoms: _660  and  _661
REMARK  271  A    between atoms: _665  and  _667
REMARK  272  A    between atoms: _667  and  _668
REMARK  273  A    between atoms: _667  and  _670
REMARK  274  A    between atoms: _670  and  _671
REMARK  275  A    between atoms: _681  and  _683
REMARK  276  A    between atoms: _683  and  _684
REMARK  277  A    between atoms: _687  and  _689
REMARK  278  A    between atoms: _689  and  _690
REMARK  279  A    between atoms: _692  and  _694
REMARK  280  A    between atoms: _694  and  _695
REMARK  281  A    between atoms: _694  and  _697
REMARK  282  A    between atoms: _697  and  _698
REMARK  283  A    between atoms: _698  and  _699
REMARK  284  A    between atoms: _702  and  _704
REMARK  285  A    between atoms: _704  and  _705
REMARK  286  A    between atoms: _708  and  _710
REMARK  287  A    between atoms: _710  and  _711
REMARK  288  A    between atoms: _710  and  _713
REMARK  289  A    between atoms: _713  and  _714
REMARK  290  A    between atoms: _714  and  _715
REMARK  291  A    between atoms: _715  and  _716
REMARK  292  A    between atoms: _725  and  _727
REMARK  293  A    between atoms: _727  and  _728
REMARK  294  A    between atoms: _727  and  _730
REMARK  295  A    between atoms: _730  and  _731
REMARK  296  A    between atoms: _734  and  _736
REMARK  297  A    between atoms: _736  and  _737
REMARK  298  A    between atoms: _736  and  _739
REMARK  299  A    between atoms: _739  and  _740
REMARK  300  A    between atoms: _745  and  _746
REMARK  301  A    between atoms: _748  and  _750
REMARK  302  A    between atoms: _750  and  _751
REMARK  303  A    between atoms: _750  and  _753
REMARK  304  A    between atoms: _753  and  _754
REMARK  305  A    between atoms: _757  and  _759
REMARK  306  A    between atoms: _759  and  _760
REMARK  307  A    between atoms: _759  and  _762
REMARK  308  A    between atoms: _762  and  _763
REMARK  309  A    between atoms: _766  and  _768
REMARK  310  A    between atoms: _768  and  _769
REMARK  311  A    between atoms: _768  and  _771
REMARK  312  A    between atoms: _771  and  _772
REMARK  313  A    between atoms: _773  and  _775
REMARK  314  A    between atoms: _775  and  _776
REMARK  315  A    between atoms: _775  and  _778
REMARK  316  A    between atoms: _781  and  _783
REMARK  317  A    between atoms: _783  and  _784
REMARK  318  A    between atoms: _783  and  _786
REMARK  319  A    between atoms: _786  and  _787
REMARK  320  A    between atoms: _787  and  _788
REMARK  321  A    between atoms: _791  and  _793
REMARK  322  A    between atoms: _793  and  _794
REMARK  323  A    between atoms: _793  and  _796
REMARK  324  A    between atoms: _796  and  _797
REMARK  325  A    between atoms: _807  and  _809
REMARK  326  A    between atoms: _809  and  _810
REMARK  327  A    between atoms: _809  and  _812
REMARK  328  A    between atoms: _812  and  _813
REMARK  329  A    between atoms: _816  and  _818
REMARK  330  A    between atoms: _818  and  _819
REMARK  331  A    between atoms: _818  and  _821
REMARK  332  A    between atoms: _821  and  _822
REMARK  333  A    between atoms: _822  and  _823
REMARK  334  A    between atoms: _823  and  _824
REMARK  335  A    between atoms: _833  and  _835
REMARK  336  A    between atoms: _835  and  _836
REMARK  337  A    between atoms: _835  and  _838
REMARK  338  A    between atoms: _838  and  _839
REMARK  339  A    between atoms: _844  and  _845
REMARK                            x       y       z     vdW  Elec       q    Type
REMARK                         _______ _______ _______ _____ _____    ______ ____
ROOT
ATOM      1  O   HOH     1      29.253  58.073 -14.299  0.00  0.00    +0.000 OA
ENDROOT
TORSDOF 0
REMARK  Name = ../refined-set-2016/1fzo/1fzo_pocket.pdb
REMARK  339 active torsions:
REMARK  status: ('A' for Active; 'I' for Inactive)
REMARK    1  A    between atoms: _1  and  _3
REMARK    2  A    between atoms: _3  and  _4
REMARK    3  A    between atoms: _3  and  _6
REMARK    4  A    between atoms: _6  and  _7
REMARK    5  A    between atoms: _10  and  _12
REMARK    6  A    between atoms: _12  and  _13
REMARK    7  A    between atoms: _12  and  _15
REMARK    8  A    between atoms: _15  and  _16
REMARK    9  A    between atoms: _16  and  _17
REMARK   10  A    between atoms: _17  and  _18
REMARK   11  A    between atoms: _27  and  _29
REMARK   12  A    between atoms: _29  and  _30
REMARK   13  A    between atoms: _29  and  _32
REMARK   14  A    between atoms: _32  and  _33
REMARK   15  A    between atoms: _38  and  _39
REMARK   16  A    between atoms: _41  and  _43
REMARK   17  A    between atoms: _43  and  _44
REMARK   18  A    between atoms: _43  and  _46
REMARK   19  A    between atoms: _46  and  _47
REMARK   20  A    between atoms: _53  and  _55
REMARK   21  A    between atoms: _55  and  _56
REMARK   22  A    between atoms: _55  and  _58
REMARK   23  A    between atoms: _61  and  _63
REMARK   24  A    between atoms: _63  and  _64
REMARK   25  A    between atoms: _63  and  _66
REMARK   26  A    between atoms: _66  and  _67
REMARK   27  A    between atoms: _70  and  _72
REMARK   28  A    between atoms: _72  and  _73
REMARK   29  A    between atoms: _72  and  _75
REMARK   30  A    between atoms: _75  and  _76
REMARK   31  A    between atoms: _82  and  _84
REMARK   32  A    between atoms: _84  and  _85
REMARK   33  A    between atoms: _84  and  _87
REMARK   34  A    between atoms: _87  and  _88
REMARK   35  A    between atoms: _91  and  _93
REMARK   36  A    between atoms: _93  and  _94
REMARK   37  A    between atoms: _93  and  _96
REMARK   38  A    between atoms: _96  and  _97
REMARK   39  A    between atoms: _99  and  _101
REMARK   40  A    between atoms: _101  and  _102
REMARK   41  A    between atoms: _101  and  _104
REMARK   42  A    between atoms: _107  and  _109
REMARK   43  A    between atoms: _109  and  _110
REMARK   44  A    between atoms: _112  and  _114
REMARK   45  A    between atoms: _114  and  _115
REMARK   46  A    between atoms: _114  and  _117
REMARK   47  A    between atoms: _120  and  _122
REMARK   48  A    between atoms: _122  and  _123
REMARK   49  A    between atoms: _122  and  _125
REMARK   50  A    between atoms: _125  and  _126
REMARK   51  A    between atoms: _132  and  _134
REMARK   52  A    between atoms: _134  and  _135
REMARK   53  A    between atoms: _134  and  _137
REMARK   54  A    between atoms: _140  and  _142
REMARK   55  A    between atoms: _142  and  _143
REMARK   56  A    between atoms: _142  and  _145
REMARK   57  A    between atoms: _145  and  _146
REMARK   58  A    between atoms: _151  and  _152
REMARK   59  A    between atoms: _154  and  _156
REMARK   60  A    between atoms: _156  and  _157
REMARK   61  A    between atoms: _156  and  _159
REMARK   62  A    between atoms: _159  and  _160
REMARK   63  A    between atoms: _160  and  _161
REMARK   64  A    between atoms: _163  and  _165
REMARK   65  A    between atoms: _165  and  _166
REMARK   66  A    between atoms: _165  and  _168
REMARK   67  A    between atoms: _168  and  _169
REMARK   68  A    between atoms: _169  and  _170
REMARK   69  A    between atoms: _173  and  _175
REMARK   70  A    between atoms: _175  and  _176
REMARK   71  A    between atoms: _175  and  _178
REMARK   72  A    between atoms: _178  and  _179
REMARK   73  A    between atoms: _179  and  _180
REMARK   74  A    between atoms: _183  and  _185
REMARK   75  A    between atoms: _185  and  _186
REMARK   76  A    between atoms: _185  and  _188
REMARK   77  A    between atoms: _188  and  _189
REMARK   78  A    between atoms: _194  and  _195
REMARK   79  A    between atoms: _197  and  _199
REMARK   80  A    between atoms: _199  and  _200
REMARK   81  A    between atoms: _199  and  _202
REMARK   82  A    between atoms: _202  and  _203
REMARK   83  A    between atoms: _213  and  _215
REMARK   84  A    between atoms: _215  and  _216
REMARK   85  A    between atoms: _215  and  _218
REMARK   86  A    between atoms: _218  and  _219
REMARK   87  A    between atoms: _219  and  _220
REMARK   88  A    between atoms: _223  and  _225
REMARK   89  A    between atoms: _225  and  _226
REMARK   90  A    between atoms: _225  and  _228
REMARK   91  A    between atoms: _228  and  _229
REMARK   92  A    between atoms: _229  and  _230
REMARK   93  A    between atoms: _230  and  _231
REMARK   94  A    between atoms: _240  and  _242
REMARK   95  A    between atoms: _242  and  _243
REMARK   96  A    between atoms: _242  and  _245
REMARK   97  A    between atoms: _245  and  _246
REMARK   98  A    between atoms: _246  and  _247
REMARK   99  A    between atoms: _250  and  _252
REMARK  100  A    between atoms: _252  and  _253
REMARK  101  A    between atoms: _252  and  _255
REMARK  102  A    between atoms: _255  and  _256
REMARK  103  A    between atoms: _259  and  _261
REMARK  104  A    between atoms: _261  and  _262
REMARK  105  A    between atoms: _261  and  _264
REMARK  106  A    between atoms: _264  and  _265
REMARK  107  A    between atoms: _265  and  _266
REMARK  108  A    between atoms: _271  and  _273
REMARK  109  A    between atoms: _273  and  _274
REMARK  110  A    between atoms: _273  and  _276
REMARK  111  A    between atoms: _276  and  _277
REMARK  112  A    between atoms: _277  and  _278
REMARK  113  A    between atoms: _278  and  _279
REMARK  114  A    between atoms: _279  and  _280
REMARK  115  A    between atoms: _284  and  _286
REMARK  116  A    between atoms: _286  and  _287
REMARK  117  A    between atoms: _290  and  _292
REMARK  118  A    between atoms: _292  and  _293
REMARK  119  A    between atoms: _295  and  _297
REMARK  120  A    between atoms: _297  and  _298
REMARK  121  A    between atoms: _297  and  _300
REMARK  122  A    between atoms: _300  and  _301
REMARK  123  A    between atoms: _306  and  _308
REMARK  124  A    between atoms: _308  and  _309
REMARK  125  A    between atoms: _308  and  _311
REMARK  126  A    between atoms: _311  and  _312
REMARK  127  A    between atoms: _312  and  _313
REMARK  128  A    between atoms: _316  and  _318
REMARK  129  A    between atoms: _318  and  _319
REMARK  130  A    between atoms: _318  and  _321
REMARK  131  A    between atoms: _321  and  _322
REMARK  132  A    between atoms: _322  and  _323
REMARK  133  A    between atoms: _328  and  _330
REMARK  134  A    between atoms: _330  and  _331
REMARK  135  A    between atoms: _330  and  _333
REMARK  136  A    between atoms: _333  and  _334
REMARK  137  A    between atoms: _336  and  _338
REMARK  138  A    between atoms: _338  and  _339
REMARK  139  A    between atoms: _338  and  _341
REMARK  140  A    between atoms: _341  and  _342
REMARK  141  A    between atoms: _348  and  _350
REMARK  142  A    between atoms: _350  and  _351
REMARK  143  A    between atoms: _350  and  _353
REMARK  144  A    between atoms: _356  and  _358
REMARK  145  A    between atoms: _358  and  _359
REMARK  146  A    between atoms: _358  and  _361
REMARK  147  A    between atoms: _361  and  _362
REMARK  148  A    between atoms: _365  and  _367
REMARK  149  A    between atoms: _367  and  _368
REMARK  150  A    between atoms: _367  and  _370
REMARK  151  A    between atoms: _370  and  _371
REMARK  152  A    between atoms: _374  and  _376
REMARK  153  A    between atoms: _376  and  _377
REMARK  154  A    between atoms: _376  and  _379
REMARK  155  A    between atoms: _379  and  _380
REMARK  156  A    between atoms: _383  and  _385
REMARK  157  A    between atoms: _385  and  _386
REMARK  158  A    between atoms: _385  and  _388
REMARK  159  A    between atoms: _388  and  _389
REMARK  160  A    between atoms: _392  and  _394
REMARK  161  A    between atoms: _394  and  _395
REMARK  162  A    between atoms: _394  and  _397
REMARK  163  A    between atoms: _397  and  _398
REMARK  164  A    between atoms: _403  and  _404
REMARK  165  A    between atoms: _406  and  _408
REMARK  166  A    between atoms: _408  and  _409
REMARK  167  A    between atoms: _408  and  _411
REMARK  168  A    between atoms: _411  and  _412
REMARK  169  A    between atoms: _417  and  _418
REMARK  170  A    between atoms: _420  and  _422
REMARK  171  A    between atoms: _422  and  _423
REMARK  172  A    between atoms: _422  and  _425
REMARK  173  A    between atoms: _425  and  _426
REMARK  174  A    between atoms: _429  and  _431
REMARK  175  A    between atoms: _431  and  _432
REMARK  176  A    between atoms: _431  and  _434
REMARK  177  A    between atoms: _434  and  _435
REMARK  178  A    between atoms: _435  and  _436
REMARK  179  A    between atoms: _441  and  _443
REMARK  180  A    between atoms: _443  and  _444
REMARK  181  A    between atoms: _443  and  _446
REMARK  182  A    between atoms: _449  and  _451
REMARK  183  A    between atoms: _451  and  _452
REMARK  184  A    between atoms: _451  and  _454
REMARK  185  A    between atoms: _454  and  _455
REMARK  186  A    between atoms: _458  and  _460
REMARK  187  A    between atoms: _460  and  _461
REMARK  188  A    between atoms: _460  and  _463
REMARK  189  A    between atoms: _463  and  _464
REMARK  190  A    between atoms: _466  and  _468
REMARK  191  A    between atoms: _468  and  _469
REMARK  192  A    between atoms: _471  and  _473
REMARK  193  A    between atoms: _473  and  _474
REMARK  194  A    between atoms: _473  and  _476
REMARK  195  A    between atoms: _476  and  _477
REMARK  196  A    between atoms: _477  and  _772
REMARK  197  A    between atoms: _478  and  _480
REMARK  198  A    between atoms: _480  and  _481
REMARK  199  A    between atoms: _480  and  _483
REMARK  200  A    between atoms: _483  and  _484
REMARK  201  A    between atoms: _489  and  _490
REMARK  202  A    between atoms: _492  and  _494
REMARK  203  A    between atoms: _494  and  _495
REMARK  204  A    between atoms: _494  and  _497
REMARK  205  A    between atoms: _497  and  _498
REMARK  206  A    between atoms: _498  and  _499
REMARK  207  A    between atoms: _504  and  _506
REMARK  208  A    between atoms: _506  and  _507
REMARK  209  A    between atoms: _506  and  _509
REMARK  210  A    between atoms: _509  and  _510
REMARK  211  A    between atoms: _510  and  _511
REMARK  212  A    between atoms: _516  and  _518
REMARK  213  A    between atoms: _518  and  _519
REMARK  214  A    between atoms: _518  and  _521
REMARK  215  A    between atoms: _521  and  _522
REMARK  216  A    between atoms: _527  and  _528
REMARK  217  A    between atoms: _530  and  _532
REMARK  218  A    between atoms: _532  and  _533
REMARK  219  A    between atoms: _536  and  _538
REMARK  220  A    between atoms: _538  and  _539
REMARK  221  A    between atoms: _538  and  _541
REMARK  222  A    between atoms: _541  and  _542
REMARK  223  A    between atoms: _547  and  _548
REMARK  224  A    between atoms: _550  and  _552
REMARK  225  A    between atoms: _552  and  _553
REMARK  226  A    between atoms: _552  and  _555
REMARK  227  A    between atoms: _555  and  _556
REMARK  228  A    between atoms: _561  and  _562
REMARK  229  A    between atoms: _564  and  _566
REMARK  230  A    between atoms: _566  and  _567
REMARK  231  A    between atoms: _566  and  _569
REMARK  232  A    between atoms: _569  and  _570
REMARK  233  A    between atoms: _573  and  _575
REMARK  234  A    between atoms: _575  and  _576
REMARK  235  A    between atoms: _575  and  _578
REMARK  236  A    between atoms: _578  and  _579
REMARK  237  A    between atoms: _589  and  _591
REMARK  238  A    between atoms: _591  and  _592
REMARK  239  A    between atoms: _595  and  _597
REMARK  240  A    between atoms: _597  and  _598
REMARK  241  A    between atoms: _601  and  _603
REMARK  242  A    between atoms: _603  and  _604
REMARK  243  A    between atoms: _603  and  _606
REMARK  244  A    between atoms: _606  and  _607
REMARK  245  A    between atoms: _610  and  _612
REMARK  246  A    between atoms: _612  and  _613
REMARK  247  A    between atoms: _612  and  _615
REMARK  248  A    between atoms: _615  and  _616
REMARK  249  A    between atoms: _619  and  _621
REMARK  250  A    between atoms: _621  and  _622
REMARK  251  A    between atoms: _621  and  _624
REMARK  252  A    between atoms: _624  and  _625
REMARK  253  A    between atoms: _628  and  _630
REMARK  254  A    between atoms: _630  and  _631
REMARK  255  A    between atoms: _630  and  _633
REMARK  256  A    between atoms: _633  and  _634
REMARK  257  A    between atoms: _634  and  _635
REMARK  258  A    between atoms: _635  and  _636
REMARK  259  A    between atoms: _636  and  _637
REMARK  260  A    between atoms: _641  and  _643
REMARK  261  A    between atoms: _643  and  _644
REMARK  262  A    between atoms: _643  and  _646
REMARK  263  A    between atoms: _646  and  _647
REMARK  264  A    between atoms: _652  and  _654
REMARK  265  A    between atoms: _654  and  _655
REMARK  266  A    between atoms: _654  and  _657
REMARK  267  A    between atoms: _657  and  _658
REMARK  268  A    between atoms: _658  and  _659
REMARK  269  A    between atoms: _659  and  _660
REMARK  270  A    between atoms: _660  and  _661
REMARK  271  A    between atoms: _665  and  _667
REMARK  272  A    between atoms: _667  and  _668
REMARK  273  A    between atoms: _667  and  _670
REMARK  274  A    between atoms: _670  and  _671
REMARK  275  A    between atoms: _681  and  _683
REMARK  276  A    between atoms: _683  and  _684
REMARK  277  A    between atoms: _687  and  _689
REMARK  278  A    between atoms: _689  and  _690
REMARK  279  A    between atoms: _692  and  _694
REMARK  280  A    between atoms: _694  and  _695
REMARK  281  A    between atoms: _694  and  _697
REMARK  282  A    between atoms: _697  and  _698
REMARK  283  A    between atoms: _698  and  _699
REMARK  284  A    between atoms: _702  and  _704
REMARK  285  A    between atoms: _704  and  _705
REMARK  286  A    between atoms: _708  and  _710
REMARK  287  A    between atoms: _710  and  _711
REMARK  288  A    between atoms: _710  and  _713
REMARK  289  A    between atoms: _713  and  _714
REMARK  290  A    between atoms: _714  and  _715
REMARK  291  A    between atoms: _715  and  _716
REMARK  292  A    between atoms: _725  and  _727
REMARK  293  A    between atoms: _727  and  _728
REMARK  294  A    between atoms: _727  and  _730
REMARK  295  A    between atoms: _730  and  _731
REMARK  296  A    between atoms: _734  and  _736
REMARK  297  A    between atoms: _736  and  _737
REMARK  298  A    between atoms: _736  and  _739
REMARK  299  A    between atoms: _739  and  _740
REMARK  300  A    between atoms: _745  and  _746
REMARK  301  A    between atoms: _748  and  _750
REMARK  302  A    between atoms: _750  and  _751
REMARK  303  A    between atoms: _750  and  _753
REMARK  304  A    between atoms: _753  and  _754
REMARK  305  A    between atoms: _757  and  _759
REMARK  306  A    between atoms: _759  and  _760
REMARK  307  A    between atoms: _759  and  _762
REMARK  308  A    between atoms: _762  and  _763
REMARK  309  A    between atoms: _766  and  _768
REMARK  310  A    between atoms: _768  and  _769
REMARK  311  A    between atoms: _768  and  _771
REMARK  312  A    between atoms: _771  and  _772
REMARK  313  A    between atoms: _773  and  _775
REMARK  314  A    between atoms: _775  and  _776
REMARK  315  A    between atoms: _775  and  _778
REMARK  316  A    between atoms: _781  and  _783
REMARK  317  A    between atoms: _783  and  _784
REMARK  318  A    between atoms: _783  and  _786
REMARK  319  A    between atoms: _786  and  _787
REMARK  320  A    between atoms: _787  and  _788
REMARK  321  A    between atoms: _791  and  _793
REMARK  322  A    between atoms: _793  and  _794
REMARK  323  A    between atoms: _793  and  _796
REMARK  324  A    between atoms: _796  and  _797
REMARK  325  A    between atoms: _807  and  _809
REMARK  326  A    between atoms: _809  and  _810
REMARK  327  A    between atoms: _809  and  _812
REMARK  328  A    between atoms: _812  and  _813
REMARK  329  A    between atoms: _816  and  _818
REMARK  330  A    between atoms: _818  and  _819
REMARK  331  A    between atoms: _818  and  _821
REMARK  332  A    between atoms: _821  and  _822
REMARK  333  A    between atoms: _822  and  _823
REMARK  334  A    between atoms: _823  and  _824
REMARK  335  A    between atoms: _833  and  _835
REMARK  336  A    between atoms: _835  and  _836
REMARK  337  A    between atoms: _835  and  _838
REMARK  338  A    between atoms: _838  and  _839
REMARK  339  A    between atoms: _844  and  _845
REMARK                            x       y       z     vdW  Elec       q    Type
REMARK                         _______ _______ _______ _____ _____    ______ ____
ROOT
ATOM      1  O   HOH     1      46.340  62.204  -9.737  0.00  0.00    +0.000 OA
ENDROOT
TORSDOF 0
REMARK  Name = ../refined-set-2016/1fzo/1fzo_pocket.pdb
REMARK  339 active torsions:
REMARK  status: ('A' for Active; 'I' for Inactive)
REMARK    1  A    between atoms: _1  and  _3
REMARK    2  A    between atoms: _3  and  _4
REMARK    3  A    between atoms: _3  and  _6
REMARK    4  A    between atoms: _6  and  _7
REMARK    5  A    between atoms: _10  and  _12
REMARK    6  A    between atoms: _12  and  _13
REMARK    7  A    between atoms: _12  and  _15
REMARK    8  A    between atoms: _15  and  _16
REMARK    9  A    between atoms: _16  and  _17
REMARK   10  A    between atoms: _17  and  _18
REMARK   11  A    between atoms: _27  and  _29
REMARK   12  A    between atoms: _29  and  _30
REMARK   13  A    between atoms: _29  and  _32
REMARK   14  A    between atoms: _32  and  _33
REMARK   15  A    between atoms: _38  and  _39
REMARK   16  A    between atoms: _41  and  _43
REMARK   17  A    between atoms: _43  and  _44
REMARK   18  A    between atoms: _43  and  _46
REMARK   19  A    between atoms: _46  and  _47
REMARK   20  A    between atoms: _53  and  _55
REMARK   21  A    between atoms: _55  and  _56
REMARK   22  A    between atoms: _55  and  _58
REMARK   23  A    between atoms: _61  and  _63
REMARK   24  A    between atoms: _63  and  _64
REMARK   25  A    between atoms: _63  and  _66
REMARK   26  A    between atoms: _66  and  _67
REMARK   27  A    between atoms: _70  and  _72
REMARK   28  A    between atoms: _72  and  _73
REMARK   29  A    between atoms: _72  and  _75
REMARK   30  A    between atoms: _75  and  _76
REMARK   31  A    between atoms: _82  and  _84
REMARK   32  A    between atoms: _84  and  _85
REMARK   33  A    between atoms: _84  and  _87
REMARK   34  A    between atoms: _87  and  _88
REMARK   35  A    between atoms: _91  and  _93
REMARK   36  A    between atoms: _93  and  _94
REMARK   37  A    between atoms: _93  and  _96
REMARK   38  A    between atoms: _96  and  _97
REMARK   39  A    between atoms: _99  and  _101
REMARK   40  A    between atoms: _101  and  _102
REMARK   41  A    between atoms: _101  and  _104
REMARK   42  A    between atoms: _107  and  _109
REMARK   43  A    between atoms: _109  and  _110
REMARK   44  A    between atoms: _112  and  _114
REMARK   45  A    between atoms: _114  and  _115
REMARK   46  A    between atoms: _114  and  _117
REMARK   47  A    between atoms: _120  and  _122
REMARK   48  A    between atoms: _122  and  _123
REMARK   49  A    between atoms: _122  and  _125
REMARK   50  A    between atoms: _125  and  _126
REMARK   51  A    between atoms: _132  and  _134
REMARK   52  A    between atoms: _134  and  _135
REMARK   53  A    between atoms: _134  and  _137
REMARK   54  A    between atoms: _140  and  _142
REMARK   55  A    between atoms: _142  and  _143
REMARK   56  A    between atoms: _142  and  _145
REMARK   57  A    between atoms: _145  and  _146
REMARK   58  A    between atoms: _151  and  _152
REMARK   59  A    between atoms: _154  and  _156
REMARK   60  A    between atoms: _156  and  _157
REMARK   61  A    between atoms: _156  and  _159
REMARK   62  A    between atoms: _159  and  _160
REMARK   63  A    between atoms: _160  and  _161
REMARK   64  A    between atoms: _163  and  _165
REMARK   65  A    between atoms: _165  and  _166
REMARK   66  A    between atoms: _165  and  _168
REMARK   67  A    between atoms: _168  and  _169
REMARK   68  A    between atoms: _169  and  _170
REMARK   69  A    between atoms: _173  and  _175
REMARK   70  A    between atoms: _175  and  _176
REMARK   71  A    between atoms: _175  and  _178
REMARK   72  A    between atoms: _178  and  _179
REMARK   73  A    between atoms: _179  and  _180
REMARK   74  A    between atoms: _183  and  _185
REMARK   75  A    between atoms: _185  and  _186
REMARK   76  A    between atoms: _185  and  _188
REMARK   77  A    between atoms: _188  and  _189
REMARK   78  A    between atoms: _194  and  _195
REMARK   79  A    between atoms: _197  and  _199
REMARK   80  A    between atoms: _199  and  _200
REMARK   81  A    between atoms: _199  and  _202
REMARK   82  A    between atoms: _202  and  _203
REMARK   83  A    between atoms: _213  and  _215
REMARK   84  A    between atoms: _215  and  _216
REMARK   85  A    between atoms: _215  and  _218
REMARK   86  A    between atoms: _218  and  _219
REMARK   87  A    between atoms: _219  and  _220
REMARK   88  A    between atoms: _223  and  _225
REMARK   89  A    between atoms: _225  and  _226
REMARK   90  A    between atoms: _225  and  _228
REMARK   91  A    between atoms: _228  and  _229
REMARK   92  A    between atoms: _229  and  _230
REMARK   93  A    between atoms: _230  and  _231
REMARK   94  A    between atoms: _240  and  _242
REMARK   95  A    between atoms: _242  and  _243
REMARK   96  A    between atoms: _242  and  _245
REMARK   97  A    between atoms: _245  and  _246
REMARK   98  A    between atoms: _246  and  _247
REMARK   99  A    between atoms: _250  and  _252
REMARK  100  A    between atoms: _252  and  _253
REMARK  101  A    between atoms: _252  and  _255
REMARK  102  A    between atoms: _255  and  _256
REMARK  103  A    between atoms: _259  and  _261
REMARK  104  A    between atoms: _261  and  _262
REMARK  105  A    between atoms: _261  and  _264
REMARK  106  A    between atoms: _264  and  _265
REMARK  107  A    between atoms: _265  and  _266
REMARK  108  A    between atoms: _271  and  _273
REMARK  109  A    between atoms: _273  and  _274
REMARK  110  A    between atoms: _273  and  _276
REMARK  111  A    between atoms: _276  and  _277
REMARK  112  A    between atoms: _277  and  _278
REMARK  113  A    between atoms: _278  and  _279
REMARK  114  A    between atoms: _279  and  _280
REMARK  115  A    between atoms: _284  and  _286
REMARK  116  A    between atoms: _286  and  _287
REMARK  117  A    between atoms: _290  and  _292
REMARK  118  A    between atoms: _292  and  _293
REMARK  119  A    between atoms: _295  and  _297
REMARK  120  A    between atoms: _297  and  _298
REMARK  121  A    between atoms: _297  and  _300
REMARK  122  A    between atoms: _300  and  _301
REMARK  123  A    between atoms: _306  and  _308
REMARK  124  A    between atoms: _308  and  _309
REMARK  125  A    between atoms: _308  and  _311
REMARK  126  A    between atoms: _311  and  _312
REMARK  127  A    between atoms: _312  and  _313
REMARK  128  A    between atoms: _316  and  _318
REMARK  129  A    between atoms: _318  and  _319
REMARK  130  A    between atoms: _318  and  _321
REMARK  131  A    between atoms: _321  and  _322
REMARK  132  A    between atoms: _322  and  _323
REMARK  133  A    between atoms: _328  and  _330
REMARK  134  A    between atoms: _330  and  _331
REMARK  135  A    between atoms: _330  and  _333
REMARK  136  A    between atoms: _333  and  _334
REMARK  137  A    between atoms: _336  and  _338
REMARK  138  A    between atoms: _338  and  _339
REMARK  139  A    between atoms: _338  and  _341
REMARK  140  A    between atoms: _341  and  _342
REMARK  141  A    between atoms: _348  and  _350
REMARK  142  A    between atoms: _350  and  _351
REMARK  143  A    between atoms: _350  and  _353
REMARK  144  A    between atoms: _356  and  _358
REMARK  145  A    between atoms: _358  and  _359
REMARK  146  A    between atoms: _358  and  _361
REMARK  147  A    between atoms: _361  and  _362
REMARK  148  A    between atoms: _365  and  _367
REMARK  149  A    between atoms: _367  and  _368
REMARK  150  A    between atoms: _367  and  _370
REMARK  151  A    between atoms: _370  and  _371
REMARK  152  A    between atoms: _374  and  _376
REMARK  153  A    between atoms: _376  and  _377
REMARK  154  A    between atoms: _376  and  _379
REMARK  155  A    between atoms: _379  and  _380
REMARK  156  A    between atoms: _383  and  _385
REMARK  157  A    between atoms: _385  and  _386
REMARK  158  A    between atoms: _385  and  _388
REMARK  159  A    between atoms: _388  and  _389
REMARK  160  A    between atoms: _392  and  _394
REMARK  161  A    between atoms: _394  and  _395
REMARK  162  A    between atoms: _394  and  _397
REMARK  163  A    between atoms: _397  and  _398
REMARK  164  A    between atoms: _403  and  _404
REMARK  165  A    between atoms: _406  and  _408
REMARK  166  A    between atoms: _408  and  _409
REMARK  167  A    between atoms: _408  and  _411
REMARK  168  A    between atoms: _411  and  _412
REMARK  169  A    between atoms: _417  and  _418
REMARK  170  A    between atoms: _420  and  _422
REMARK  171  A    between atoms: _422  and  _423
REMARK  172  A    between atoms: _422  and  _425
REMARK  173  A    between atoms: _425  and  _426
REMARK  174  A    between atoms: _429  and  _431
REMARK  175  A    between atoms: _431  and  _432
REMARK  176  A    between atoms: _431  and  _434
REMARK  177  A    between atoms: _434  and  _435
REMARK  178  A    between atoms: _435  and  _436
REMARK  179  A    between atoms: _441  and  _443
REMARK  180  A    between atoms: _443  and  _444
REMARK  181  A    between atoms: _443  and  _446
REMARK  182  A    between atoms: _449  and  _451
REMARK  183  A    between atoms: _451  and  _452
REMARK  184  A    between atoms: _451  and  _454
REMARK  185  A    between atoms: _454  and  _455
REMARK  186  A    between atoms: _458  and  _460
REMARK  187  A    between atoms: _460  and  _461
REMARK  188  A    between atoms: _460  and  _463
REMARK  189  A    between atoms: _463  and  _464
REMARK  190  A    between atoms: _466  and  _468
REMARK  191  A    between atoms: _468  and  _469
REMARK  192  A    between atoms: _471  and  _473
REMARK  193  A    between atoms: _473  and  _474
REMARK  194  A    between atoms: _473  and  _476
REMARK  195  A    between atoms: _476  and  _477
REMARK  196  A    between atoms: _477  and  _772
REMARK  197  A    between atoms: _478  and  _480
REMARK  198  A    between atoms: _480  and  _481
REMARK  199  A    between atoms: _480  and  _483
REMARK  200  A    between atoms: _483  and  _484
REMARK  201  A    between atoms: _489  and  _490
REMARK  202  A    between atoms: _492  and  _494
REMARK  203  A    between atoms: _494  and  _495
REMARK  204  A    between atoms: _494  and  _497
REMARK  205  A    between atoms: _497  and  _498
REMARK  206  A    between atoms: _498  and  _499
REMARK  207  A    between atoms: _504  and  _506
REMARK  208  A    between atoms: _506  and  _507
REMARK  209  A    between atoms: _506  and  _509
REMARK  210  A    between atoms: _509  and  _510
REMARK  211  A    between atoms: _510  and  _511
REMARK  212  A    between atoms: _516  and  _518
REMARK  213  A    between atoms: _518  and  _519
REMARK  214  A    between atoms: _518  and  _521
REMARK  215  A    between atoms: _521  and  _522
REMARK  216  A    between atoms: _527  and  _528
REMARK  217  A    between atoms: _530  and  _532
REMARK  218  A    between atoms: _532  and  _533
REMARK  219  A    between atoms: _536  and  _538
REMARK  220  A    between atoms: _538  and  _539
REMARK  221  A    between atoms: _538  and  _541
REMARK  222  A    between atoms: _541  and  _542
REMARK  223  A    between atoms: _547  and  _548
REMARK  224  A    between atoms: _550  and  _552
REMARK  225  A    between atoms: _552  and  _553
REMARK  226  A    between atoms: _552  and  _555
REMARK  227  A    between atoms: _555  and  _556
REMARK  228  A    between atoms: _561  and  _562
REMARK  229  A    between atoms: _564  and  _566
REMARK  230  A    between atoms: _566  and  _567
REMARK  231  A    between atoms: _566  and  _569
REMARK  232  A    between atoms: _569  and  _570
REMARK  233  A    between atoms: _573  and  _575
REMARK  234  A    between atoms: _575  and  _576
REMARK  235  A    between atoms: _575  and  _578
REMARK  236  A    between atoms: _578  and  _579
REMARK  237  A    between atoms: _589  and  _591
REMARK  238  A    between atoms: _591  and  _592
REMARK  239  A    between atoms: _595  and  _597
REMARK  240  A    between atoms: _597  and  _598
REMARK  241  A    between atoms: _601  and  _603
REMARK  242  A    between atoms: _603  and  _604
REMARK  243  A    between atoms: _603  and  _606
REMARK  244  A    between atoms: _606  and  _607
REMARK  245  A    between atoms: _610  and  _612
REMARK  246  A    between atoms: _612  and  _613
REMARK  247  A    between atoms: _612  and  _615
REMARK  248  A    between atoms: _615  and  _616
REMARK  249  A    between atoms: _619  and  _621
REMARK  250  A    between atoms: _621  and  _622
REMARK  251  A    between atoms: _621  and  _624
REMARK  252  A    between atoms: _624  and  _625
REMARK  253  A    between atoms: _628  and  _630
REMARK  254  A    between atoms: _630  and  _631
REMARK  255  A    between atoms: _630  and  _633
REMARK  256  A    between atoms: _633  and  _634
REMARK  257  A    between atoms: _634  and  _635
REMARK  258  A    between atoms: _635  and  _636
REMARK  259  A    between atoms: _636  and  _637
REMARK  260  A    between atoms: _641  and  _643
REMARK  261  A    between atoms: _643  and  _644
REMARK  262  A    between atoms: _643  and  _646
REMARK  263  A    between atoms: _646  and  _647
REMARK  264  A    between atoms: _652  and  _654
REMARK  265  A    between atoms: _654  and  _655
REMARK  266  A    between atoms: _654  and  _657
REMARK  267  A    between atoms: _657  and  _658
REMARK  268  A    between atoms: _658  and  _659
REMARK  269  A    between atoms: _659  and  _660
REMARK  270  A    between atoms: _660  and  _661
REMARK  271  A    between atoms: _665  and  _667
REMARK  272  A    between atoms: _667  and  _668
REMARK  273  A    between atoms: _667  and  _670
REMARK  274  A    between atoms: _670  and  _671
REMARK  275  A    between atoms: _681  and  _683
REMARK  276  A    between atoms: _683  and  _684
REMARK  277  A    between atoms: _687  and  _689
REMARK  278  A    between atoms: _689  and  _690
REMARK  279  A    between atoms: _692  and  _694
REMARK  280  A    between atoms: _694  and  _695
REMARK  281  A    between atoms: _694  and  _697
REMARK  282  A    between atoms: _697  and  _698
REMARK  283  A    between atoms: _698  and  _699
REMARK  284  A    between atoms: _702  and  _704
REMARK  285  A    between atoms: _704  and  _705
REMARK  286  A    between atoms: _708  and  _710
REMARK  287  A    between atoms: _710  and  _711
REMARK  288  A    between atoms: _710  and  _713
REMARK  289  A    between atoms: _713  and  _714
REMARK  290  A    between atoms: _714  and  _715
REMARK  291  A    between atoms: _715  and  _716
REMARK  292  A    between atoms: _725  and  _727
REMARK  293  A    between atoms: _727  and  _728
REMARK  294  A    between atoms: _727  and  _730
REMARK  295  A    between atoms: _730  and  _731
REMARK  296  A    between atoms: _734  and  _736
REMARK  297  A    between atoms: _736  and  _737
REMARK  298  A    between atoms: _736  and  _739
REMARK  299  A    between atoms: _739  and  _740
REMARK  300  A    between atoms: _745  and  _746
REMARK  301  A    between atoms: _748  and  _750
REMARK  302  A    between atoms: _750  and  _751
REMARK  303  A    between atoms: _750  and  _753
REMARK  304  A    between atoms: _753  and  _754
REMARK  305  A    between atoms: _757  and  _759
REMARK  306  A    between atoms: _759  and  _760
REMARK  307  A    between atoms: _759  and  _762
REMARK  308  A    between atoms: _762  and  _763
REMARK  309  A    between atoms: _766  and  _768
REMARK  310  A    between atoms: _768  and  _769
REMARK  311  A    between atoms: _768  and  _771
REMARK  312  A    between atoms: _771  and  _772
REMARK  313  A    between atoms: _773  and  _775
REMARK  314  A    between atoms: _775  and  _776
REMARK  315  A    between atoms: _775  and  _778
REMARK  316  A    between atoms: _781  and  _783
REMARK  317  A    between atoms: _783  and  _784
REMARK  318  A    between atoms: _783  and  _786
REMARK  319  A    between atoms: _786  and  _787
REMARK  320  A    between atoms: _787  and  _788
REMARK  321  A    between atoms: _791  and  _793
REMARK  322  A    between atoms: _793  and  _794
REMARK  323  A    between atoms: _793  and  _796
REMARK  324  A    between atoms: _796  and  _797
REMARK  325  A    between atoms: _807  and  _809
REMARK  326  A    between atoms: _809  and  _810
REMARK  327  A    between atoms: _809  and  _812
REMARK  328  A    between atoms: _812  and  _813
REMARK  329  A    between atoms: _816  and  _818
REMARK  330  A    between atoms: _818  and  _819
REMARK  331  A    between atoms: _818  and  _821
REMARK  332  A    between atoms: _821  and  _822
REMARK  333  A    between atoms: _822  and  _823
REMARK  334  A    between atoms: _823  and  _824
REMARK  335  A    between atoms: _833  and  _835
REMARK  336  A    between atoms: _835  and  _836
REMARK  337  A    between atoms: _835  and  _838
REMARK  338  A    between atoms: _838  and  _839
REMARK  339  A    between atoms: _844  and  _845
REMARK                            x       y       z     vdW  Elec       q    Type
REMARK                         _______ _______ _______ _____ _____    ______ ____
ROOT
ATOM      1  O   HOH     1      41.742  65.974 -11.046  0.00  0.00    +0.000 OA
ENDROOT
TORSDOF 0
REMARK  Name = ../refined-set-2016/1fzo/1fzo_pocket.pdb
REMARK  339 active torsions:
REMARK  status: ('A' for Active; 'I' for Inactive)
REMARK    1  A    between atoms: _1  and  _3
REMARK    2  A    between atoms: _3  and  _4
REMARK    3  A    between atoms: _3  and  _6
REMARK    4  A    between atoms: _6  and  _7
REMARK    5  A    between atoms: _10  and  _12
REMARK    6  A    between atoms: _12  and  _13
REMARK    7  A    between atoms: _12  and  _15
REMARK    8  A    between atoms: _15  and  _16
REMARK    9  A    between atoms: _16  and  _17
REMARK   10  A    between atoms: _17  and  _18
REMARK   11  A    between atoms: _27  and  _29
REMARK   12  A    between atoms: _29  and  _30
REMARK   13  A    between atoms: _29  and  _32
REMARK   14  A    between atoms: _32  and  _33
REMARK   15  A    between atoms: _38  and  _39
REMARK   16  A    between atoms: _41  and  _43
REMARK   17  A    between atoms: _43  and  _44
REMARK   18  A    between atoms: _43  and  _46
REMARK   19  A    between atoms: _46  and  _47
REMARK   20  A    between atoms: _53  and  _55
REMARK   21  A    between atoms: _55  and  _56
REMARK   22  A    between atoms: _55  and  _58
REMARK   23  A    between atoms: _61  and  _63
REMARK   24  A    between atoms: _63  and  _64
REMARK   25  A    between atoms: _63  and  _66
REMARK   26  A    between atoms: _66  and  _67
REMARK   27  A    between atoms: _70  and  _72
REMARK   28  A    between atoms: _72  and  _73
REMARK   29  A    between atoms: _72  and  _75
REMARK   30  A    between atoms: _75  and  _76
REMARK   31  A    between atoms: _82  and  _84
REMARK   32  A    between atoms: _84  and  _85
REMARK   33  A    between atoms: _84  and  _87
REMARK   34  A    between atoms: _87  and  _88
REMARK   35  A    between atoms: _91  and  _93
REMARK   36  A    between atoms: _93  and  _94
REMARK   37  A    between atoms: _93  and  _96
REMARK   38  A    between atoms: _96  and  _97
REMARK   39  A    between atoms: _99  and  _101
REMARK   40  A    between atoms: _101  and  _102
REMARK   41  A    between atoms: _101  and  _104
REMARK   42  A    between atoms: _107  and  _109
REMARK   43  A    between atoms: _109  and  _110
REMARK   44  A    between atoms: _112  and  _114
REMARK   45  A    between atoms: _114  and  _115
REMARK   46  A    between atoms: _114  and  _117
REMARK   47  A    between atoms: _120  and  _122
REMARK   48  A    between atoms: _122  and  _123
REMARK   49  A    between atoms: _122  and  _125
REMARK   50  A    between atoms: _125  and  _126
REMARK   51  A    between atoms: _132  and  _134
REMARK   52  A    between atoms: _134  and  _135
REMARK   53  A    between atoms: _134  and  _137
REMARK   54  A    between atoms: _140  and  _142
REMARK   55  A    between atoms: _142  and  _143
REMARK   56  A    between atoms: _142  and  _145
REMARK   57  A    between atoms: _145  and  _146
REMARK   58  A    between atoms: _151  and  _152
REMARK   59  A    between atoms: _154  and  _156
REMARK   60  A    between atoms: _156  and  _157
REMARK   61  A    between atoms: _156  and  _159
REMARK   62  A    between atoms: _159  and  _160
REMARK   63  A    between atoms: _160  and  _161
REMARK   64  A    between atoms: _163  and  _165
REMARK   65  A    between atoms: _165  and  _166
REMARK   66  A    between atoms: _165  and  _168
REMARK   67  A    between atoms: _168  and  _169
REMARK   68  A    between atoms: _169  and  _170
REMARK   69  A    between atoms: _173  and  _175
REMARK   70  A    between atoms: _175  and  _176
REMARK   71  A    between atoms: _175  and  _178
REMARK   72  A    between atoms: _178  and  _179
REMARK   73  A    between atoms: _179  and  _180
REMARK   74  A    between atoms: _183  and  _185
REMARK   75  A    between atoms: _185  and  _186
REMARK   76  A    between atoms: _185  and  _188
REMARK   77  A    between atoms: _188  and  _189
REMARK   78  A    between atoms: _194  and  _195
REMARK   79  A    between atoms: _197  and  _199
REMARK   80  A    between atoms: _199  and  _200
REMARK   81  A    between atoms: _199  and  _202
REMARK   82  A    between atoms: _202  and  _203
REMARK   83  A    between atoms: _213  and  _215
REMARK   84  A    between atoms: _215  and  _216
REMARK   85  A    between atoms: _215  and  _218
REMARK   86  A    between atoms: _218  and  _219
REMARK   87  A    between atoms: _219  and  _220
REMARK   88  A    between atoms: _223  and  _225
REMARK   89  A    between atoms: _225  and  _226
REMARK   90  A    between atoms: _225  and  _228
REMARK   91  A    between atoms: _228  and  _229
REMARK   92  A    between atoms: _229  and  _230
REMARK   93  A    between atoms: _230  and  _231
REMARK   94  A    between atoms: _240  and  _242
REMARK   95  A    between atoms: _242  and  _243
REMARK   96  A    between atoms: _242  and  _245
REMARK   97  A    between atoms: _245  and  _246
REMARK   98  A    between atoms: _246  and  _247
REMARK   99  A    between atoms: _250  and  _252
REMARK  100  A    between atoms: _252  and  _253
REMARK  101  A    between atoms: _252  and  _255
REMARK  102  A    between atoms: _255  and  _256
REMARK  103  A    between atoms: _259  and  _261
REMARK  104  A    between atoms: _261  and  _262
REMARK  105  A    between atoms: _261  and  _264
REMARK  106  A    between atoms: _264  and  _265
REMARK  107  A    between atoms: _265  and  _266
REMARK  108  A    between atoms: _271  and  _273
REMARK  109  A    between atoms: _273  and  _274
REMARK  110  A    between atoms: _273  and  _276
REMARK  111  A    between atoms: _276  and  _277
REMARK  112  A    between atoms: _277  and  _278
REMARK  113  A    between atoms: _278  and  _279
REMARK  114  A    between atoms: _279  and  _280
REMARK  115  A    between atoms: _284  and  _286
REMARK  116  A    between atoms: _286  and  _287
REMARK  117  A    between atoms: _290  and  _292
REMARK  118  A    between atoms: _292  and  _293
REMARK  119  A    between atoms: _295  and  _297
REMARK  120  A    between atoms: _297  and  _298
REMARK  121  A    between atoms: _297  and  _300
REMARK  122  A    between atoms: _300  and  _301
REMARK  123  A    between atoms: _306  and  _308
REMARK  124  A    between atoms: _308  and  _309
REMARK  125  A    between atoms: _308  and  _311
REMARK  126  A    between atoms: _311  and  _312
REMARK  127  A    between atoms: _312  and  _313
REMARK  128  A    between atoms: _316  and  _318
REMARK  129  A    between atoms: _318  and  _319
REMARK  130  A    between atoms: _318  and  _321
REMARK  131  A    between atoms: _321  and  _322
REMARK  132  A    between atoms: _322  and  _323
REMARK  133  A    between atoms: _328  and  _330
REMARK  134  A    between atoms: _330  and  _331
REMARK  135  A    between atoms: _330  and  _333
REMARK  136  A    between atoms: _333  and  _334
REMARK  137  A    between atoms: _336  and  _338
REMARK  138  A    between atoms: _338  and  _339
REMARK  139  A    between atoms: _338  and  _341
REMARK  140  A    between atoms: _341  and  _342
REMARK  141  A    between atoms: _348  and  _350
REMARK  142  A    between atoms: _350  and  _351
REMARK  143  A    between atoms: _350  and  _353
REMARK  144  A    between atoms: _356  and  _358
REMARK  145  A    between atoms: _358  and  _359
REMARK  146  A    between atoms: _358  and  _361
REMARK  147  A    between atoms: _361  and  _362
REMARK  148  A    between atoms: _365  and  _367
REMARK  149  A    between atoms: _367  and  _368
REMARK  150  A    between atoms: _367  and  _370
REMARK  151  A    between atoms: _370  and  _371
REMARK  152  A    between atoms: _374  and  _376
REMARK  153  A    between atoms: _376  and  _377
REMARK  154  A    between atoms: _376  and  _379
REMARK  155  A    between atoms: _379  and  _380
REMARK  156  A    between atoms: _383  and  _385
REMARK  157  A    between atoms: _385  and  _386
REMARK  158  A    between atoms: _385  and  _388
REMARK  159  A    between atoms: _388  and  _389
REMARK  160  A    between atoms: _392  and  _394
REMARK  161  A    between atoms: _394  and  _395
REMARK  162  A    between atoms: _394  and  _397
REMARK  163  A    between atoms: _397  and  _398
REMARK  164  A    between atoms: _403  and  _404
REMARK  165  A    between atoms: _406  and  _408
REMARK  166  A    between atoms: _408  and  _409
REMARK  167  A    between atoms: _408  and  _411
REMARK  168  A    between atoms: _411  and  _412
REMARK  169  A    between atoms: _417  and  _418
REMARK  170  A    between atoms: _420  and  _422
REMARK  171  A    between atoms: _422  and  _423
REMARK  172  A    between atoms: _422  and  _425
REMARK  173  A    between atoms: _425  and  _426
REMARK  174  A    between atoms: _429  and  _431
REMARK  175  A    between atoms: _431  and  _432
REMARK  176  A    between atoms: _431  and  _434
REMARK  177  A    between atoms: _434  and  _435
REMARK  178  A    between atoms: _435  and  _436
REMARK  179  A    between atoms: _441  and  _443
REMARK  180  A    between atoms: _443  and  _444
REMARK  181  A    between atoms: _443  and  _446
REMARK  182  A    between atoms: _449  and  _451
REMARK  183  A    between atoms: _451  and  _452
REMARK  184  A    between atoms: _451  and  _454
REMARK  185  A    between atoms: _454  and  _455
REMARK  186  A    between atoms: _458  and  _460
REMARK  187  A    between atoms: _460  and  _461
REMARK  188  A    between atoms: _460  and  _463
REMARK  189  A    between atoms: _463  and  _464
REMARK  190  A    between atoms: _466  and  _468
REMARK  191  A    between atoms: _468  and  _469
REMARK  192  A    between atoms: _471  and  _473
REMARK  193  A    between atoms: _473  and  _474
REMARK  194  A    between atoms: _473  and  _476
REMARK  195  A    between atoms: _476  and  _477
REMARK  196  A    between atoms: _477  and  _772
REMARK  197  A    between atoms: _478  and  _480
REMARK  198  A    between atoms: _480  and  _481
REMARK  199  A    between atoms: _480  and  _483
REMARK  200  A    between atoms: _483  and  _484
REMARK  201  A    between atoms: _489  and  _490
REMARK  202  A    between atoms: _492  and  _494
REMARK  203  A    between atoms: _494  and  _495
REMARK  204  A    between atoms: _494  and  _497
REMARK  205  A    between atoms: _497  and  _498
REMARK  206  A    between atoms: _498  and  _499
REMARK  207  A    between atoms: _504  and  _506
REMARK  208  A    between atoms: _506  and  _507
REMARK  209  A    between atoms: _506  and  _509
REMARK  210  A    between atoms: _509  and  _510
REMARK  211  A    between atoms: _510  and  _511
REMARK  212  A    between atoms: _516  and  _518
REMARK  213  A    between atoms: _518  and  _519
REMARK  214  A    between atoms: _518  and  _521
REMARK  215  A    between atoms: _521  and  _522
REMARK  216  A    between atoms: _527  and  _528
REMARK  217  A    between atoms: _530  and  _532
REMARK  218  A    between atoms: _532  and  _533
REMARK  219  A    between atoms: _536  and  _538
REMARK  220  A    between atoms: _538  and  _539
REMARK  221  A    between atoms: _538  and  _541
REMARK  222  A    between atoms: _541  and  _542
REMARK  223  A    between atoms: _547  and  _548
REMARK  224  A    between atoms: _550  and  _552
REMARK  225  A    between atoms: _552  and  _553
REMARK  226  A    between atoms: _552  and  _555
REMARK  227  A    between atoms: _555  and  _556
REMARK  228  A    between atoms: _561  and  _562
REMARK  229  A    between atoms: _564  and  _566
REMARK  230  A    between atoms: _566  and  _567
REMARK  231  A    between atoms: _566  and  _569
REMARK  232  A    between atoms: _569  and  _570
REMARK  233  A    between atoms: _573  and  _575
REMARK  234  A    between atoms: _575  and  _576
REMARK  235  A    between atoms: _575  and  _578
REMARK  236  A    between atoms: _578  and  _579
REMARK  237  A    between atoms: _589  and  _591
REMARK  238  A    between atoms: _591  and  _592
REMARK  239  A    between atoms: _595  and  _597
REMARK  240  A    between atoms: _597  and  _598
REMARK  241  A    between atoms: _601  and  _603
REMARK  242  A    between atoms: _603  and  _604
REMARK  243  A    between atoms: _603  and  _606
REMARK  244  A    between atoms: _606  and  _607
REMARK  245  A    between atoms: _610  and  _612
REMARK  246  A    between atoms: _612  and  _613
REMARK  247  A    between atoms: _612  and  _615
REMARK  248  A    between atoms: _615  and  _616
REMARK  249  A    between atoms: _619  and  _621
REMARK  250  A    between atoms: _621  and  _622
REMARK  251  A    between atoms: _621  and  _624
REMARK  252  A    between atoms: _624  and  _625
REMARK  253  A    between atoms: _628  and  _630
REMARK  254  A    between atoms: _630  and  _631
REMARK  255  A    between atoms: _630  and  _633
REMARK  256  A    between atoms: _633  and  _634
REMARK  257  A    between atoms: _634  and  _635
REMARK  258  A    between atoms: _635  and  _636
REMARK  259  A    between atoms: _636  and  _637
REMARK  260  A    between atoms: _641  and  _643
REMARK  261  A    between atoms: _643  and  _644
REMARK  262  A    between atoms: _643  and  _646
REMARK  263  A    between atoms: _646  and  _647
REMARK  264  A    between atoms: _652  and  _654
REMARK  265  A    between atoms: _654  and  _655
REMARK  266  A    between atoms: _654  and  _657
REMARK  267  A    between atoms: _657  and  _658
REMARK  268  A    between atoms: _658  and  _659
REMARK  269  A    between atoms: _659  and  _660
REMARK  270  A    between atoms: _660  and  _661
REMARK  271  A    between atoms: _665  and  _667
REMARK  272  A    between atoms: _667  and  _668
REMARK  273  A    between atoms: _667  and  _670
REMARK  274  A    between atoms: _670  and  _671
REMARK  275  A    between atoms: _681  and  _683
REMARK  276  A    between atoms: _683  and  _684
REMARK  277  A    between atoms: _687  and  _689
REMARK  278  A    between atoms: _689  and  _690
REMARK  279  A    between atoms: _692  and  _694
REMARK  280  A    between atoms: _694  and  _695
REMARK  281  A    between atoms: _694  and  _697
REMARK  282  A    between atoms: _697  and  _698
REMARK  283  A    between atoms: _698  and  _699
REMARK  284  A    between atoms: _702  and  _704
REMARK  285  A    between atoms: _704  and  _705
REMARK  286  A    between atoms: _708  and  _710
REMARK  287  A    between atoms: _710  and  _711
REMARK  288  A    between atoms: _710  and  _713
REMARK  289  A    between atoms: _713  and  _714
REMARK  290  A    between atoms: _714  and  _715
REMARK  291  A    between atoms: _715  and  _716
REMARK  292  A    between atoms: _725  and  _727
REMARK  293  A    between atoms: _727  and  _728
REMARK  294  A    between atoms: _727  and  _730
REMARK  295  A    between atoms: _730  and  _731
REMARK  296  A    between atoms: _734  and  _736
REMARK  297  A    between atoms: _736  and  _737
REMARK  298  A    between atoms: _736  and  _739
REMARK  299  A    between atoms: _739  and  _740
REMARK  300  A    between atoms: _745  and  _746
REMARK  301  A    between atoms: _748  and  _750
REMARK  302  A    between atoms: _750  and  _751
REMARK  303  A    between atoms: _750  and  _753
REMARK  304  A    between atoms: _753  and  _754
REMARK  305  A    between atoms: _757  and  _759
REMARK  306  A    between atoms: _759  and  _760
REMARK  307  A    between atoms: _759  and  _762
REMARK  308  A    between atoms: _762  and  _763
REMARK  309  A    between atoms: _766  and  _768
REMARK  310  A    between atoms: _768  and  _769
REMARK  311  A    between atoms: _768  and  _771
REMARK  312  A    between atoms: _771  and  _772
REMARK  313  A    between atoms: _773  and  _775
REMARK  314  A    between atoms: _775  and  _776
REMARK  315  A    between atoms: _775  and  _778
REMARK  316  A    between atoms: _781  and  _783
REMARK  317  A    between atoms: _783  and  _784
REMARK  318  A    between atoms: _783  and  _786
REMARK  319  A    between atoms: _786  and  _787
REMARK  320  A    between atoms: _787  and  _788
REMARK  321  A    between atoms: _791  and  _793
REMARK  322  A    between atoms: _793  and  _794
REMARK  323  A    between atoms: _793  and  _796
REMARK  324  A    between atoms: _796  and  _797
REMARK  325  A    between atoms: _807  and  _809
REMARK  326  A    between atoms: _809  and  _810
REMARK  327  A    between atoms: _809  and  _812
REMARK  328  A    between atoms: _812  and  _813
REMARK  329  A    between atoms: _816  and  _818
REMARK  330  A    between atoms: _818  and  _819
REMARK  331  A    between atoms: _818  and  _821
REMARK  332  A    between atoms: _821  and  _822
REMARK  333  A    between atoms: _822  and  _823
REMARK  334  A    between atoms: _823  and  _824
REMARK  335  A    between atoms: _833  and  _835
REMARK  336  A    between atoms: _835  and  _836
REMARK  337  A    between atoms: _835  and  _838
REMARK  338  A    between atoms: _838  and  _839
REMARK  339  A    between atoms: _844  and  _845
REMARK                            x       y       z     vdW  Elec       q    Type
REMARK                         _______ _______ _______ _____ _____    ______ ____
ROOT
ATOM      1  O   HOH     1      44.956  57.678 -11.002  0.00  0.00    +0.000 OA
ENDROOT
TORSDOF 0
REMARK  Name = ../refined-set-2016/1fzo/1fzo_pocket.pdb
REMARK  339 active torsions:
REMARK  status: ('A' for Active; 'I' for Inactive)
REMARK    1  A    between atoms: _1  and  _3
REMARK    2  A    between atoms: _3  and  _4
REMARK    3  A    between atoms: _3  and  _6
REMARK    4  A    between atoms: _6  and  _7
REMARK    5  A    between atoms: _10  and  _12
REMARK    6  A    between atoms: _12  and  _13
REMARK    7  A    between atoms: _12  and  _15
REMARK    8  A    between atoms: _15  and  _16
REMARK    9  A    between atoms: _16  and  _17
REMARK   10  A    between atoms: _17  and  _18
REMARK   11  A    between atoms: _27  and  _29
REMARK   12  A    between atoms: _29  and  _30
REMARK   13  A    between atoms: _29  and  _32
REMARK   14  A    between atoms: _32  and  _33
REMARK   15  A    between atoms: _38  and  _39
REMARK   16  A    between atoms: _41  and  _43
REMARK   17  A    between atoms: _43  and  _44
REMARK   18  A    between atoms: _43  and  _46
REMARK   19  A    between atoms: _46  and  _47
REMARK   20  A    between atoms: _53  and  _55
REMARK   21  A    between atoms: _55  and  _56
REMARK   22  A    between atoms: _55  and  _58
REMARK   23  A    between atoms: _61  and  _63
REMARK   24  A    between atoms: _63  and  _64
REMARK   25  A    between atoms: _63  and  _66
REMARK   26  A    between atoms: _66  and  _67
REMARK   27  A    between atoms: _70  and  _72
REMARK   28  A    between atoms: _72  and  _73
REMARK   29  A    between atoms: _72  and  _75
REMARK   30  A    between atoms: _75  and  _76
REMARK   31  A    between atoms: _82  and  _84
REMARK   32  A    between atoms: _84  and  _85
REMARK   33  A    between atoms: _84  and  _87
REMARK   34  A    between atoms: _87  and  _88
REMARK   35  A    between atoms: _91  and  _93
REMARK   36  A    between atoms: _93  and  _94
REMARK   37  A    between atoms: _93  and  _96
REMARK   38  A    between atoms: _96  and  _97
REMARK   39  A    between atoms: _99  and  _101
REMARK   40  A    between atoms: _101  and  _102
REMARK   41  A    between atoms: _101  and  _104
REMARK   42  A    between atoms: _107  and  _109
REMARK   43  A    between atoms: _109  and  _110
REMARK   44  A    between atoms: _112  and  _114
REMARK   45  A    between atoms: _114  and  _115
REMARK   46  A    between atoms: _114  and  _117
REMARK   47  A    between atoms: _120  and  _122
REMARK   48  A    between atoms: _122  and  _123
REMARK   49  A    between atoms: _122  and  _125
REMARK   50  A    between atoms: _125  and  _126
REMARK   51  A    between atoms: _132  and  _134
REMARK   52  A    between atoms: _134  and  _135
REMARK   53  A    between atoms: _134  and  _137
REMARK   54  A    between atoms: _140  and  _142
REMARK   55  A    between atoms: _142  and  _143
REMARK   56  A    between atoms: _142  and  _145
REMARK   57  A    between atoms: _145  and  _146
REMARK   58  A    between atoms: _151  and  _152
REMARK   59  A    between atoms: _154  and  _156
REMARK   60  A    between atoms: _156  and  _157
REMARK   61  A    between atoms: _156  and  _159
REMARK   62  A    between atoms: _159  and  _160
REMARK   63  A    between atoms: _160  and  _161
REMARK   64  A    between atoms: _163  and  _165
REMARK   65  A    between atoms: _165  and  _166
REMARK   66  A    between atoms: _165  and  _168
REMARK   67  A    between atoms: _168  and  _169
REMARK   68  A    between atoms: _169  and  _170
REMARK   69  A    between atoms: _173  and  _175
REMARK   70  A    between atoms: _175  and  _176
REMARK   71  A    between atoms: _175  and  _178
REMARK   72  A    between atoms: _178  and  _179
REMARK   73  A    between atoms: _179  and  _180
REMARK   74  A    between atoms: _183  and  _185
REMARK   75  A    between atoms: _185  and  _186
REMARK   76  A    between atoms: _185  and  _188
REMARK   77  A    between atoms: _188  and  _189
REMARK   78  A    between atoms: _194  and  _195
REMARK   79  A    between atoms: _197  and  _199
REMARK   80  A    between atoms: _199  and  _200
REMARK   81  A    between atoms: _199  and  _202
REMARK   82  A    between atoms: _202  and  _203
REMARK   83  A    between atoms: _213  and  _215
REMARK   84  A    between atoms: _215  and  _216
REMARK   85  A    between atoms: _215  and  _218
REMARK   86  A    between atoms: _218  and  _219
REMARK   87  A    between atoms: _219  and  _220
REMARK   88  A    between atoms: _223  and  _225
REMARK   89  A    between atoms: _225  and  _226
REMARK   90  A    between atoms: _225  and  _228
REMARK   91  A    between atoms: _228  and  _229
REMARK   92  A    between atoms: _229  and  _230
REMARK   93  A    between atoms: _230  and  _231
REMARK   94  A    between atoms: _240  and  _242
REMARK   95  A    between atoms: _242  and  _243
REMARK   96  A    between atoms: _242  and  _245
REMARK   97  A    between atoms: _245  and  _246
REMARK   98  A    between atoms: _246  and  _247
REMARK   99  A    between atoms: _250  and  _252
REMARK  100  A    between atoms: _252  and  _253
REMARK  101  A    between atoms: _252  and  _255
REMARK  102  A    between atoms: _255  and  _256
REMARK  103  A    between atoms: _259  and  _261
REMARK  104  A    between atoms: _261  and  _262
REMARK  105  A    between atoms: _261  and  _264
REMARK  106  A    between atoms: _264  and  _265
REMARK  107  A    between atoms: _265  and  _266
REMARK  108  A    between atoms: _271  and  _273
REMARK  109  A    between atoms: _273  and  _274
REMARK  110  A    between atoms: _273  and  _276
REMARK  111  A    between atoms: _276  and  _277
REMARK  112  A    between atoms: _277  and  _278
REMARK  113  A    between atoms: _278  and  _279
REMARK  114  A    between atoms: _279  and  _280
REMARK  115  A    between atoms: _284  and  _286
REMARK  116  A    between atoms: _286  and  _287
REMARK  117  A    between atoms: _290  and  _292
REMARK  118  A    between atoms: _292  and  _293
REMARK  119  A    between atoms: _295  and  _297
REMARK  120  A    between atoms: _297  and  _298
REMARK  121  A    between atoms: _297  and  _300
REMARK  122  A    between atoms: _300  and  _301
REMARK  123  A    between atoms: _306  and  _308
REMARK  124  A    between atoms: _308  and  _309
REMARK  125  A    between atoms: _308  and  _311
REMARK  126  A    between atoms: _311  and  _312
REMARK  127  A    between atoms: _312  and  _313
REMARK  128  A    between atoms: _316  and  _318
REMARK  129  A    between atoms: _318  and  _319
REMARK  130  A    between atoms: _318  and  _321
REMARK  131  A    between atoms: _321  and  _322
REMARK  132  A    between atoms: _322  and  _323
REMARK  133  A    between atoms: _328  and  _330
REMARK  134  A    between atoms: _330  and  _331
REMARK  135  A    between atoms: _330  and  _333
REMARK  136  A    between atoms: _333  and  _334
REMARK  137  A    between atoms: _336  and  _338
REMARK  138  A    between atoms: _338  and  _339
REMARK  139  A    between atoms: _338  and  _341
REMARK  140  A    between atoms: _341  and  _342
REMARK  141  A    between atoms: _348  and  _350
REMARK  142  A    between atoms: _350  and  _351
REMARK  143  A    between atoms: _350  and  _353
REMARK  144  A    between atoms: _356  and  _358
REMARK  145  A    between atoms: _358  and  _359
REMARK  146  A    between atoms: _358  and  _361
REMARK  147  A    between atoms: _361  and  _362
REMARK  148  A    between atoms: _365  and  _367
REMARK  149  A    between atoms: _367  and  _368
REMARK  150  A    between atoms: _367  and  _370
REMARK  151  A    between atoms: _370  and  _371
REMARK  152  A    between atoms: _374  and  _376
REMARK  153  A    between atoms: _376  and  _377
REMARK  154  A    between atoms: _376  and  _379
REMARK  155  A    between atoms: _379  and  _380
REMARK  156  A    between atoms: _383  and  _385
REMARK  157  A    between atoms: _385  and  _386
REMARK  158  A    between atoms: _385  and  _388
REMARK  159  A    between atoms: _388  and  _389
REMARK  160  A    between atoms: _392  and  _394
REMARK  161  A    between atoms: _394  and  _395
REMARK  162  A    between atoms: _394  and  _397
REMARK  163  A    between atoms: _397  and  _398
REMARK  164  A    between atoms: _403  and  _404
REMARK  165  A    between atoms: _406  and  _408
REMARK  166  A    between atoms: _408  and  _409
REMARK  167  A    between atoms: _408  and  _411
REMARK  168  A    between atoms: _411  and  _412
REMARK  169  A    between atoms: _417  and  _418
REMARK  170  A    between atoms: _420  and  _422
REMARK  171  A    between atoms: _422  and  _423
REMARK  172  A    between atoms: _422  and  _425
REMARK  173  A    between atoms: _425  and  _426
REMARK  174  A    between atoms: _429  and  _431
REMARK  175  A    between atoms: _431  and  _432
REMARK  176  A    between atoms: _431  and  _434
REMARK  177  A    between atoms: _434  and  _435
REMARK  178  A    between atoms: _435  and  _436
REMARK  179  A    between atoms: _441  and  _443
REMARK  180  A    between atoms: _443  and  _444
REMARK  181  A    between atoms: _443  and  _446
REMARK  182  A    between atoms: _449  and  _451
REMARK  183  A    between atoms: _451  and  _452
REMARK  184  A    between atoms: _451  and  _454
REMARK  185  A    between atoms: _454  and  _455
REMARK  186  A    between atoms: _458  and  _460
REMARK  187  A    between atoms: _460  and  _461
REMARK  188  A    between atoms: _460  and  _463
REMARK  189  A    between atoms: _463  and  _464
REMARK  190  A    between atoms: _466  and  _468
REMARK  191  A    between atoms: _468  and  _469
REMARK  192  A    between atoms: _471  and  _473
REMARK  193  A    between atoms: _473  and  _474
REMARK  194  A    between atoms: _473  and  _476
REMARK  195  A    between atoms: _476  and  _477
REMARK  196  A    between atoms: _477  and  _772
REMARK  197  A    between atoms: _478  and  _480
REMARK  198  A    between atoms: _480  and  _481
REMARK  199  A    between atoms: _480  and  _483
REMARK  200  A    between atoms: _483  and  _484
REMARK  201  A    between atoms: _489  and  _490
REMARK  202  A    between atoms: _492  and  _494
REMARK  203  A    between atoms: _494  and  _495
REMARK  204  A    between atoms: _494  and  _497
REMARK  205  A    between atoms: _497  and  _498
REMARK  206  A    between atoms: _498  and  _499
REMARK  207  A    between atoms: _504  and  _506
REMARK  208  A    between atoms: _506  and  _507
REMARK  209  A    between atoms: _506  and  _509
REMARK  210  A    between atoms: _509  and  _510
REMARK  211  A    between atoms: _510  and  _511
REMARK  212  A    between atoms: _516  and  _518
REMARK  213  A    between atoms: _518  and  _519
REMARK  214  A    between atoms: _518  and  _521
REMARK  215  A    between atoms: _521  and  _522
REMARK  216  A    between atoms: _527  and  _528
REMARK  217  A    between atoms: _530  and  _532
REMARK  218  A    between atoms: _532  and  _533
REMARK  219  A    between atoms: _536  and  _538
REMARK  220  A    between atoms: _538  and  _539
REMARK  221  A    between atoms: _538  and  _541
REMARK  222  A    between atoms: _541  and  _542
REMARK  223  A    between atoms: _547  and  _548
REMARK  224  A    between atoms: _550  and  _552
REMARK  225  A    between atoms: _552  and  _553
REMARK  226  A    between atoms: _552  and  _555
REMARK  227  A    between atoms: _555  and  _556
REMARK  228  A    between atoms: _561  and  _562
REMARK  229  A    between atoms: _564  and  _566
REMARK  230  A    between atoms: _566  and  _567
REMARK  231  A    between atoms: _566  and  _569
REMARK  232  A    between atoms: _569  and  _570
REMARK  233  A    between atoms: _573  and  _575
REMARK  234  A    between atoms: _575  and  _576
REMARK  235  A    between atoms: _575  and  _578
REMARK  236  A    between atoms: _578  and  _579
REMARK  237  A    between atoms: _589  and  _591
REMARK  238  A    between atoms: _591  and  _592
REMARK  239  A    between atoms: _595  and  _597
REMARK  240  A    between atoms: _597  and  _598
REMARK  241  A    between atoms: _601  and  _603
REMARK  242  A    between atoms: _603  and  _604
REMARK  243  A    between atoms: _603  and  _606
REMARK  244  A    between atoms: _606  and  _607
REMARK  245  A    between atoms: _610  and  _612
REMARK  246  A    between atoms: _612  and  _613
REMARK  247  A    between atoms: _612  and  _615
REMARK  248  A    between atoms: _615  and  _616
REMARK  249  A    between atoms: _619  and  _621
REMARK  250  A    between atoms: _621  and  _622
REMARK  251  A    between atoms: _621  and  _624
REMARK  252  A    between atoms: _624  and  _625
REMARK  253  A    between atoms: _628  and  _630
REMARK  254  A    between atoms: _630  and  _631
REMARK  255  A    between atoms: _630  and  _633
REMARK  256  A    between atoms: _633  and  _634
REMARK  257  A    between atoms: _634  and  _635
REMARK  258  A    between atoms: _635  and  _636
REMARK  259  A    between atoms: _636  and  _637
REMARK  260  A    between atoms: _641  and  _643
REMARK  261  A    between atoms: _643  and  _644
REMARK  262  A    between atoms: _643  and  _646
REMARK  263  A    between atoms: _646  and  _647
REMARK  264  A    between atoms: _652  and  _654
REMARK  265  A    between atoms: _654  and  _655
REMARK  266  A    between atoms: _654  and  _657
REMARK  267  A    between atoms: _657  and  _658
REMARK  268  A    between atoms: _658  and  _659
REMARK  269  A    between atoms: _659  and  _660
REMARK  270  A    between atoms: _660  and  _661
REMARK  271  A    between atoms: _665  and  _667
REMARK  272  A    between atoms: _667  and  _668
REMARK  273  A    between atoms: _667  and  _670
REMARK  274  A    between atoms: _670  and  _671
REMARK  275  A    between atoms: _681  and  _683
REMARK  276  A    between atoms: _683  and  _684
REMARK  277  A    between atoms: _687  and  _689
REMARK  278  A    between atoms: _689  and  _690
REMARK  279  A    between atoms: _692  and  _694
REMARK  280  A    between atoms: _694  and  _695
REMARK  281  A    between atoms: _694  and  _697
REMARK  282  A    between atoms: _697  and  _698
REMARK  283  A    between atoms: _698  and  _699
REMARK  284  A    between atoms: _702  and  _704
REMARK  285  A    between atoms: _704  and  _705
REMARK  286  A    between atoms: _708  and  _710
REMARK  287  A    between atoms: _710  and  _711
REMARK  288  A    between atoms: _710  and  _713
REMARK  289  A    between atoms: _713  and  _714
REMARK  290  A    between atoms: _714  and  _715
REMARK  291  A    between atoms: _715  and  _716
REMARK  292  A    between atoms: _725  and  _727
REMARK  293  A    between atoms: _727  and  _728
REMARK  294  A    between atoms: _727  and  _730
REMARK  295  A    between atoms: _730  and  _731
REMARK  296  A    between atoms: _734  and  _736
REMARK  297  A    between atoms: _736  and  _737
REMARK  298  A    between atoms: _736  and  _739
REMARK  299  A    between atoms: _739  and  _740
REMARK  300  A    between atoms: _745  and  _746
REMARK  301  A    between atoms: _748  and  _750
REMARK  302  A    between atoms: _750  and  _751
REMARK  303  A    between atoms: _750  and  _753
REMARK  304  A    between atoms: _753  and  _754
REMARK  305  A    between atoms: _757  and  _759
REMARK  306  A    between atoms: _759  and  _760
REMARK  307  A    between atoms: _759  and  _762
REMARK  308  A    between atoms: _762  and  _763
REMARK  309  A    between atoms: _766  and  _768
REMARK  310  A    between atoms: _768  and  _769
REMARK  311  A    between atoms: _768  and  _771
REMARK  312  A    between atoms: _771  and  _772
REMARK  313  A    between atoms: _773  and  _775
REMARK  314  A    between atoms: _775  and  _776
REMARK  315  A    between atoms: _775  and  _778
REMARK  316  A    between atoms: _781  and  _783
REMARK  317  A    between atoms: _783  and  _784
REMARK  318  A    between atoms: _783  and  _786
REMARK  319  A    between atoms: _786  and  _787
REMARK  320  A    between atoms: _787  and  _788
REMARK  321  A    between atoms: _791  and  _793
REMARK  322  A    between atoms: _793  and  _794
REMARK  323  A    between atoms: _793  and  _796
REMARK  324  A    between atoms: _796  and  _797
REMARK  325  A    between atoms: _807  and  _809
REMARK  326  A    between atoms: _809  and  _810
REMARK  327  A    between atoms: _809  and  _812
REMARK  328  A    between atoms: _812  and  _813
REMARK  329  A    between atoms: _816  and  _818
REMARK  330  A    between atoms: _818  and  _819
REMARK  331  A    between atoms: _818  and  _821
REMARK  332  A    between atoms: _821  and  _822
REMARK  333  A    between atoms: _822  and  _823
REMARK  334  A    between atoms: _823  and  _824
REMARK  335  A    between atoms: _833  and  _835
REMARK  336  A    between atoms: _835  and  _836
REMARK  337  A    between atoms: _835  and  _838
REMARK  338  A    between atoms: _838  and  _839
REMARK  339  A    between atoms: _844  and  _845
REMARK                            x       y       z     vdW  Elec       q    Type
REMARK                         _______ _______ _______ _____ _____    ______ ____
ROOT
ATOM      1  O   HOH     1      50.449  64.853  -5.049  0.00  0.00    +0.000 OA
ENDROOT
TORSDOF 0
REMARK  Name = ../refined-set-2016/1fzo/1fzo_pocket.pdb
REMARK  339 active torsions:
REMARK  status: ('A' for Active; 'I' for Inactive)
REMARK    1  A    between atoms: _1  and  _3
REMARK    2  A    between atoms: _3  and  _4
REMARK    3  A    between atoms: _3  and  _6
REMARK    4  A    between atoms: _6  and  _7
REMARK    5  A    between atoms: _10  and  _12
REMARK    6  A    between atoms: _12  and  _13
REMARK    7  A    between atoms: _12  and  _15
REMARK    8  A    between atoms: _15  and  _16
REMARK    9  A    between atoms: _16  and  _17
REMARK   10  A    between atoms: _17  and  _18
REMARK   11  A    between atoms: _27  and  _29
REMARK   12  A    between atoms: _29  and  _30
REMARK   13  A    between atoms: _29  and  _32
REMARK   14  A    between atoms: _32  and  _33
REMARK   15  A    between atoms: _38  and  _39
REMARK   16  A    between atoms: _41  and  _43
REMARK   17  A    between atoms: _43  and  _44
REMARK   18  A    between atoms: _43  and  _46
REMARK   19  A    between atoms: _46  and  _47
REMARK   20  A    between atoms: _53  and  _55
REMARK   21  A    between atoms: _55  and  _56
REMARK   22  A    between atoms: _55  and  _58
REMARK   23  A    between atoms: _61  and  _63
REMARK   24  A    between atoms: _63  and  _64
REMARK   25  A    between atoms: _63  and  _66
REMARK   26  A    between atoms: _66  and  _67
REMARK   27  A    between atoms: _70  and  _72
REMARK   28  A    between atoms: _72  and  _73
REMARK   29  A    between atoms: _72  and  _75
REMARK   30  A    between atoms: _75  and  _76
REMARK   31  A    between atoms: _82  and  _84
REMARK   32  A    between atoms: _84  and  _85
REMARK   33  A    between atoms: _84  and  _87
REMARK   34  A    between atoms: _87  and  _88
REMARK   35  A    between atoms: _91  and  _93
REMARK   36  A    between atoms: _93  and  _94
REMARK   37  A    between atoms: _93  and  _96
REMARK   38  A    between atoms: _96  and  _97
REMARK   39  A    between atoms: _99  and  _101
REMARK   40  A    between atoms: _101  and  _102
REMARK   41  A    between atoms: _101  and  _104
REMARK   42  A    between atoms: _107  and  _109
REMARK   43  A    between atoms: _109  and  _110
REMARK   44  A    between atoms: _112  and  _114
REMARK   45  A    between atoms: _114  and  _115
REMARK   46  A    between atoms: _114  and  _117
REMARK   47  A    between atoms: _120  and  _122
REMARK   48  A    between atoms: _122  and  _123
REMARK   49  A    between atoms: _122  and  _125
REMARK   50  A    between atoms: _125  and  _126
REMARK   51  A    between atoms: _132  and  _134
REMARK   52  A    between atoms: _134  and  _135
REMARK   53  A    between atoms: _134  and  _137
REMARK   54  A    between atoms: _140  and  _142
REMARK   55  A    between atoms: _142  and  _143
REMARK   56  A    between atoms: _142  and  _145
REMARK   57  A    between atoms: _145  and  _146
REMARK   58  A    between atoms: _151  and  _152
REMARK   59  A    between atoms: _154  and  _156
REMARK   60  A    between atoms: _156  and  _157
REMARK   61  A    between atoms: _156  and  _159
REMARK   62  A    between atoms: _159  and  _160
REMARK   63  A    between atoms: _160  and  _161
REMARK   64  A    between atoms: _163  and  _165
REMARK   65  A    between atoms: _165  and  _166
REMARK   66  A    between atoms: _165  and  _168
REMARK   67  A    between atoms: _168  and  _169
REMARK   68  A    between atoms: _169  and  _170
REMARK   69  A    between atoms: _173  and  _175
REMARK   70  A    between atoms: _175  and  _176
REMARK   71  A    between atoms: _175  and  _178
REMARK   72  A    between atoms: _178  and  _179
REMARK   73  A    between atoms: _179  and  _180
REMARK   74  A    between atoms: _183  and  _185
REMARK   75  A    between atoms: _185  and  _186
REMARK   76  A    between atoms: _185  and  _188
REMARK   77  A    between atoms: _188  and  _189
REMARK   78  A    between atoms: _194  and  _195
REMARK   79  A    between atoms: _197  and  _199
REMARK   80  A    between atoms: _199  and  _200
REMARK   81  A    between atoms: _199  and  _202
REMARK   82  A    between atoms: _202  and  _203
REMARK   83  A    between atoms: _213  and  _215
REMARK   84  A    between atoms: _215  and  _216
REMARK   85  A    between atoms: _215  and  _218
REMARK   86  A    between atoms: _218  and  _219
REMARK   87  A    between atoms: _219  and  _220
REMARK   88  A    between atoms: _223  and  _225
REMARK   89  A    between atoms: _225  and  _226
REMARK   90  A    between atoms: _225  and  _228
REMARK   91  A    between atoms: _228  and  _229
REMARK   92  A    between atoms: _229  and  _230
REMARK   93  A    between atoms: _230  and  _231
REMARK   94  A    between atoms: _240  and  _242
REMARK   95  A    between atoms: _242  and  _243
REMARK   96  A    between atoms: _242  and  _245
REMARK   97  A    between atoms: _245  and  _246
REMARK   98  A    between atoms: _246  and  _247
REMARK   99  A    between atoms: _250  and  _252
REMARK  100  A    between atoms: _252  and  _253
REMARK  101  A    between atoms: _252  and  _255
REMARK  102  A    between atoms: _255  and  _256
REMARK  103  A    between atoms: _259  and  _261
REMARK  104  A    between atoms: _261  and  _262
REMARK  105  A    between atoms: _261  and  _264
REMARK  106  A    between atoms: _264  and  _265
REMARK  107  A    between atoms: _265  and  _266
REMARK  108  A    between atoms: _271  and  _273
REMARK  109  A    between atoms: _273  and  _274
REMARK  110  A    between atoms: _273  and  _276
REMARK  111  A    between atoms: _276  and  _277
REMARK  112  A    between atoms: _277  and  _278
REMARK  113  A    between atoms: _278  and  _279
REMARK  114  A    between atoms: _279  and  _280
REMARK  115  A    between atoms: _284  and  _286
REMARK  116  A    between atoms: _286  and  _287
REMARK  117  A    between atoms: _290  and  _292
REMARK  118  A    between atoms: _292  and  _293
REMARK  119  A    between atoms: _295  and  _297
REMARK  120  A    between atoms: _297  and  _298
REMARK  121  A    between atoms: _297  and  _300
REMARK  122  A    between atoms: _300  and  _301
REMARK  123  A    between atoms: _306  and  _308
REMARK  124  A    between atoms: _308  and  _309
REMARK  125  A    between atoms: _308  and  _311
REMARK  126  A    between atoms: _311  and  _312
REMARK  127  A    between atoms: _312  and  _313
REMARK  128  A    between atoms: _316  and  _318
REMARK  129  A    between atoms: _318  and  _319
REMARK  130  A    between atoms: _318  and  _321
REMARK  131  A    between atoms: _321  and  _322
REMARK  132  A    between atoms: _322  and  _323
REMARK  133  A    between atoms: _328  and  _330
REMARK  134  A    between atoms: _330  and  _331
REMARK  135  A    between atoms: _330  and  _333
REMARK  136  A    between atoms: _333  and  _334
REMARK  137  A    between atoms: _336  and  _338
REMARK  138  A    between atoms: _338  and  _339
REMARK  139  A    between atoms: _338  and  _341
REMARK  140  A    between atoms: _341  and  _342
REMARK  141  A    between atoms: _348  and  _350
REMARK  142  A    between atoms: _350  and  _351
REMARK  143  A    between atoms: _350  and  _353
REMARK  144  A    between atoms: _356  and  _358
REMARK  145  A    between atoms: _358  and  _359
REMARK  146  A    between atoms: _358  and  _361
REMARK  147  A    between atoms: _361  and  _362
REMARK  148  A    between atoms: _365  and  _367
REMARK  149  A    between atoms: _367  and  _368
REMARK  150  A    between atoms: _367  and  _370
REMARK  151  A    between atoms: _370  and  _371
REMARK  152  A    between atoms: _374  and  _376
REMARK  153  A    between atoms: _376  and  _377
REMARK  154  A    between atoms: _376  and  _379
REMARK  155  A    between atoms: _379  and  _380
REMARK  156  A    between atoms: _383  and  _385
REMARK  157  A    between atoms: _385  and  _386
REMARK  158  A    between atoms: _385  and  _388
REMARK  159  A    between atoms: _388  and  _389
REMARK  160  A    between atoms: _392  and  _394
REMARK  161  A    between atoms: _394  and  _395
REMARK  162  A    between atoms: _394  and  _397
REMARK  163  A    between atoms: _397  and  _398
REMARK  164  A    between atoms: _403  and  _404
REMARK  165  A    between atoms: _406  and  _408
REMARK  166  A    between atoms: _408  and  _409
REMARK  167  A    between atoms: _408  and  _411
REMARK  168  A    between atoms: _411  and  _412
REMARK  169  A    between atoms: _417  and  _418
REMARK  170  A    between atoms: _420  and  _422
REMARK  171  A    between atoms: _422  and  _423
REMARK  172  A    between atoms: _422  and  _425
REMARK  173  A    between atoms: _425  and  _426
REMARK  174  A    between atoms: _429  and  _431
REMARK  175  A    between atoms: _431  and  _432
REMARK  176  A    between atoms: _431  and  _434
REMARK  177  A    between atoms: _434  and  _435
REMARK  178  A    between atoms: _435  and  _436
REMARK  179  A    between atoms: _441  and  _443
REMARK  180  A    between atoms: _443  and  _444
REMARK  181  A    between atoms: _443  and  _446
REMARK  182  A    between atoms: _449  and  _451
REMARK  183  A    between atoms: _451  and  _452
REMARK  184  A    between atoms: _451  and  _454
REMARK  185  A    between atoms: _454  and  _455
REMARK  186  A    between atoms: _458  and  _460
REMARK  187  A    between atoms: _460  and  _461
REMARK  188  A    between atoms: _460  and  _463
REMARK  189  A    between atoms: _463  and  _464
REMARK  190  A    between atoms: _466  and  _468
REMARK  191  A    between atoms: _468  and  _469
REMARK  192  A    between atoms: _471  and  _473
REMARK  193  A    between atoms: _473  and  _474
REMARK  194  A    between atoms: _473  and  _476
REMARK  195  A    between atoms: _476  and  _477
REMARK  196  A    between atoms: _477  and  _772
REMARK  197  A    between atoms: _478  and  _480
REMARK  198  A    between atoms: _480  and  _481
REMARK  199  A    between atoms: _480  and  _483
REMARK  200  A    between atoms: _483  and  _484
REMARK  201  A    between atoms: _489  and  _490
REMARK  202  A    between atoms: _492  and  _494
REMARK  203  A    between atoms: _494  and  _495
REMARK  204  A    between atoms: _494  and  _497
REMARK  205  A    between atoms: _497  and  _498
REMARK  206  A    between atoms: _498  and  _499
REMARK  207  A    between atoms: _504  and  _506
REMARK  208  A    between atoms: _506  and  _507
REMARK  209  A    between atoms: _506  and  _509
REMARK  210  A    between atoms: _509  and  _510
REMARK  211  A    between atoms: _510  and  _511
REMARK  212  A    between atoms: _516  and  _518
REMARK  213  A    between atoms: _518  and  _519
REMARK  214  A    between atoms: _518  and  _521
REMARK  215  A    between atoms: _521  and  _522
REMARK  216  A    between atoms: _527  and  _528
REMARK  217  A    between atoms: _530  and  _532
REMARK  218  A    between atoms: _532  and  _533
REMARK  219  A    between atoms: _536  and  _538
REMARK  220  A    between atoms: _538  and  _539
REMARK  221  A    between atoms: _538  and  _541
REMARK  222  A    between atoms: _541  and  _542
REMARK  223  A    between atoms: _547  and  _548
REMARK  224  A    between atoms: _550  and  _552
REMARK  225  A    between atoms: _552  and  _553
REMARK  226  A    between atoms: _552  and  _555
REMARK  227  A    between atoms: _555  and  _556
REMARK  228  A    between atoms: _561  and  _562
REMARK  229  A    between atoms: _564  and  _566
REMARK  230  A    between atoms: _566  and  _567
REMARK  231  A    between atoms: _566  and  _569
REMARK  232  A    between atoms: _569  and  _570
REMARK  233  A    between atoms: _573  and  _575
REMARK  234  A    between atoms: _575  and  _576
REMARK  235  A    between atoms: _575  and  _578
REMARK  236  A    between atoms: _578  and  _579
REMARK  237  A    between atoms: _589  and  _591
REMARK  238  A    between atoms: _591  and  _592
REMARK  239  A    between atoms: _595  and  _597
REMARK  240  A    between atoms: _597  and  _598
REMARK  241  A    between atoms: _601  and  _603
REMARK  242  A    between atoms: _603  and  _604
REMARK  243  A    between atoms: _603  and  _606
REMARK  244  A    between atoms: _606  and  _607
REMARK  245  A    between atoms: _610  and  _612
REMARK  246  A    between atoms: _612  and  _613
REMARK  247  A    between atoms: _612  and  _615
REMARK  248  A    between atoms: _615  and  _616
REMARK  249  A    between atoms: _619  and  _621
REMARK  250  A    between atoms: _621  and  _622
REMARK  251  A    between atoms: _621  and  _624
REMARK  252  A    between atoms: _624  and  _625
REMARK  253  A    between atoms: _628  and  _630
REMARK  254  A    between atoms: _630  and  _631
REMARK  255  A    between atoms: _630  and  _633
REMARK  256  A    between atoms: _633  and  _634
REMARK  257  A    between atoms: _634  and  _635
REMARK  258  A    between atoms: _635  and  _636
REMARK  259  A    between atoms: _636  and  _637
REMARK  260  A    between atoms: _641  and  _643
REMARK  261  A    between atoms: _643  and  _644
REMARK  262  A    between atoms: _643  and  _646
REMARK  263  A    between atoms: _646  and  _647
REMARK  264  A    between atoms: _652  and  _654
REMARK  265  A    between atoms: _654  and  _655
REMARK  266  A    between atoms: _654  and  _657
REMARK  267  A    between atoms: _657  and  _658
REMARK  268  A    between atoms: _658  and  _659
REMARK  269  A    between atoms: _659  and  _660
REMARK  270  A    between atoms: _660  and  _661
REMARK  271  A    between atoms: _665  and  _667
REMARK  272  A    between atoms: _667  and  _668
REMARK  273  A    between atoms: _667  and  _670
REMARK  274  A    between atoms: _670  and  _671
REMARK  275  A    between atoms: _681  and  _683
REMARK  276  A    between atoms: _683  and  _684
REMARK  277  A    between atoms: _687  and  _689
REMARK  278  A    between atoms: _689  and  _690
REMARK  279  A    between atoms: _692  and  _694
REMARK  280  A    between atoms: _694  and  _695
REMARK  281  A    between atoms: _694  and  _697
REMARK  282  A    between atoms: _697  and  _698
REMARK  283  A    between atoms: _698  and  _699
REMARK  284  A    between atoms: _702  and  _704
REMARK  285  A    between atoms: _704  and  _705
REMARK  286  A    between atoms: _708  and  _710
REMARK  287  A    between atoms: _710  and  _711
REMARK  288  A    between atoms: _710  and  _713
REMARK  289  A    between atoms: _713  and  _714
REMARK  290  A    between atoms: _714  and  _715
REMARK  291  A    between atoms: _715  and  _716
REMARK  292  A    between atoms: _725  and  _727
REMARK  293  A    between atoms: _727  and  _728
REMARK  294  A    between atoms: _727  and  _730
REMARK  295  A    between atoms: _730  and  _731
REMARK  296  A    between atoms: _734  and  _736
REMARK  297  A    between atoms: _736  and  _737
REMARK  298  A    between atoms: _736  and  _739
REMARK  299  A    between atoms: _739  and  _740
REMARK  300  A    between atoms: _745  and  _746
REMARK  301  A    between atoms: _748  and  _750
REMARK  302  A    between atoms: _750  and  _751
REMARK  303  A    between atoms: _750  and  _753
REMARK  304  A    between atoms: _753  and  _754
REMARK  305  A    between atoms: _757  and  _759
REMARK  306  A    between atoms: _759  and  _760
REMARK  307  A    between atoms: _759  and  _762
REMARK  308  A    between atoms: _762  and  _763
REMARK  309  A    between atoms: _766  and  _768
REMARK  310  A    between atoms: _768  and  _769
REMARK  311  A    between atoms: _768  and  _771
REMARK  312  A    between atoms: _771  and  _772
REMARK  313  A    between atoms: _773  and  _775
REMARK  314  A    between atoms: _775  and  _776
REMARK  315  A    between atoms: _775  and  _778
REMARK  316  A    between atoms: _781  and  _783
REMARK  317  A    between atoms: _783  and  _784
REMARK  318  A    between atoms: _783  and  _786
REMARK  319  A    between atoms: _786  and  _787
REMARK  320  A    between atoms: _787  and  _788
REMARK  321  A    between atoms: _791  and  _793
REMARK  322  A    between atoms: _793  and  _794
REMARK  323  A    between atoms: _793  and  _796
REMARK  324  A    between atoms: _796  and  _797
REMARK  325  A    between atoms: _807  and  _809
REMARK  326  A    between atoms: _809  and  _810
REMARK  327  A    between atoms: _809  and  _812
REMARK  328  A    between atoms: _812  and  _813
REMARK  329  A    between atoms: _816  and  _818
REMARK  330  A    between atoms: _818  and  _819
REMARK  331  A    between atoms: _818  and  _821
REMARK  332  A    between atoms: _821  and  _822
REMARK  333  A    between atoms: _822  and  _823
REMARK  334  A    between atoms: _823  and  _824
REMARK  335  A    between atoms: _833  and  _835
REMARK  336  A    between atoms: _835  and  _836
REMARK  337  A    between atoms: _835  and  _838
REMARK  338  A    between atoms: _838  and  _839
REMARK  339  A    between atoms: _844  and  _845
REMARK                            x       y       z     vdW  Elec       q    Type
REMARK                         _______ _______ _______ _____ _____    ______ ____
ROOT
ATOM      1  O   HOH     1      51.485  64.181   4.505  0.00  0.00    +0.000 OA
ENDROOT
TORSDOF 0
REMARK  Name = ../refined-set-2016/1fzo/1fzo_pocket.pdb
REMARK  339 active torsions:
REMARK  status: ('A' for Active; 'I' for Inactive)
REMARK    1  A    between atoms: _1  and  _3
REMARK    2  A    between atoms: _3  and  _4
REMARK    3  A    between atoms: _3  and  _6
REMARK    4  A    between atoms: _6  and  _7
REMARK    5  A    between atoms: _10  and  _12
REMARK    6  A    between atoms: _12  and  _13
REMARK    7  A    between atoms: _12  and  _15
REMARK    8  A    between atoms: _15  and  _16
REMARK    9  A    between atoms: _16  and  _17
REMARK   10  A    between atoms: _17  and  _18
REMARK   11  A    between atoms: _27  and  _29
REMARK   12  A    between atoms: _29  and  _30
REMARK   13  A    between atoms: _29  and  _32
REMARK   14  A    between atoms: _32  and  _33
REMARK   15  A    between atoms: _38  and  _39
REMARK   16  A    between atoms: _41  and  _43
REMARK   17  A    between atoms: _43  and  _44
REMARK   18  A    between atoms: _43  and  _46
REMARK   19  A    between atoms: _46  and  _47
REMARK   20  A    between atoms: _53  and  _55
REMARK   21  A    between atoms: _55  and  _56
REMARK   22  A    between atoms: _55  and  _58
REMARK   23  A    between atoms: _61  and  _63
REMARK   24  A    between atoms: _63  and  _64
REMARK   25  A    between atoms: _63  and  _66
REMARK   26  A    between atoms: _66  and  _67
REMARK   27  A    between atoms: _70  and  _72
REMARK   28  A    between atoms: _72  and  _73
REMARK   29  A    between atoms: _72  and  _75
REMARK   30  A    between atoms: _75  and  _76
REMARK   31  A    between atoms: _82  and  _84
REMARK   32  A    between atoms: _84  and  _85
REMARK   33  A    between atoms: _84  and  _87
REMARK   34  A    between atoms: _87  and  _88
REMARK   35  A    between atoms: _91  and  _93
REMARK   36  A    between atoms: _93  and  _94
REMARK   37  A    between atoms: _93  and  _96
REMARK   38  A    between atoms: _96  and  _97
REMARK   39  A    between atoms: _99  and  _101
REMARK   40  A    between atoms: _101  and  _102
REMARK   41  A    between atoms: _101  and  _104
REMARK   42  A    between atoms: _107  and  _109
REMARK   43  A    between atoms: _109  and  _110
REMARK   44  A    between atoms: _112  and  _114
REMARK   45  A    between atoms: _114  and  _115
REMARK   46  A    between atoms: _114  and  _117
REMARK   47  A    between atoms: _120  and  _122
REMARK   48  A    between atoms: _122  and  _123
REMARK   49  A    between atoms: _122  and  _125
REMARK   50  A    between atoms: _125  and  _126
REMARK   51  A    between atoms: _132  and  _134
REMARK   52  A    between atoms: _134  and  _135
REMARK   53  A    between atoms: _134  and  _137
REMARK   54  A    between atoms: _140  and  _142
REMARK   55  A    between atoms: _142  and  _143
REMARK   56  A    between atoms: _142  and  _145
REMARK   57  A    between atoms: _145  and  _146
REMARK   58  A    between atoms: _151  and  _152
REMARK   59  A    between atoms: _154  and  _156
REMARK   60  A    between atoms: _156  and  _157
REMARK   61  A    between atoms: _156  and  _159
REMARK   62  A    between atoms: _159  and  _160
REMARK   63  A    between atoms: _160  and  _161
REMARK   64  A    between atoms: _163  and  _165
REMARK   65  A    between atoms: _165  and  _166
REMARK   66  A    between atoms: _165  and  _168
REMARK   67  A    between atoms: _168  and  _169
REMARK   68  A    between atoms: _169  and  _170
REMARK   69  A    between atoms: _173  and  _175
REMARK   70  A    between atoms: _175  and  _176
REMARK   71  A    between atoms: _175  and  _178
REMARK   72  A    between atoms: _178  and  _179
REMARK   73  A    between atoms: _179  and  _180
REMARK   74  A    between atoms: _183  and  _185
REMARK   75  A    between atoms: _185  and  _186
REMARK   76  A    between atoms: _185  and  _188
REMARK   77  A    between atoms: _188  and  _189
REMARK   78  A    between atoms: _194  and  _195
REMARK   79  A    between atoms: _197  and  _199
REMARK   80  A    between atoms: _199  and  _200
REMARK   81  A    between atoms: _199  and  _202
REMARK   82  A    between atoms: _202  and  _203
REMARK   83  A    between atoms: _213  and  _215
REMARK   84  A    between atoms: _215  and  _216
REMARK   85  A    between atoms: _215  and  _218
REMARK   86  A    between atoms: _218  and  _219
REMARK   87  A    between atoms: _219  and  _220
REMARK   88  A    between atoms: _223  and  _225
REMARK   89  A    between atoms: _225  and  _226
REMARK   90  A    between atoms: _225  and  _228
REMARK   91  A    between atoms: _228  and  _229
REMARK   92  A    between atoms: _229  and  _230
REMARK   93  A    between atoms: _230  and  _231
REMARK   94  A    between atoms: _240  and  _242
REMARK   95  A    between atoms: _242  and  _243
REMARK   96  A    between atoms: _242  and  _245
REMARK   97  A    between atoms: _245  and  _246
REMARK   98  A    between atoms: _246  and  _247
REMARK   99  A    between atoms: _250  and  _252
REMARK  100  A    between atoms: _252  and  _253
REMARK  101  A    between atoms: _252  and  _255
REMARK  102  A    between atoms: _255  and  _256
REMARK  103  A    between atoms: _259  and  _261
REMARK  104  A    between atoms: _261  and  _262
REMARK  105  A    between atoms: _261  and  _264
REMARK  106  A    between atoms: _264  and  _265
REMARK  107  A    between atoms: _265  and  _266
REMARK  108  A    between atoms: _271  and  _273
REMARK  109  A    between atoms: _273  and  _274
REMARK  110  A    between atoms: _273  and  _276
REMARK  111  A    between atoms: _276  and  _277
REMARK  112  A    between atoms: _277  and  _278
REMARK  113  A    between atoms: _278  and  _279
REMARK  114  A    between atoms: _279  and  _280
REMARK  115  A    between atoms: _284  and  _286
REMARK  116  A    between atoms: _286  and  _287
REMARK  117  A    between atoms: _290  and  _292
REMARK  118  A    between atoms: _292  and  _293
REMARK  119  A    between atoms: _295  and  _297
REMARK  120  A    between atoms: _297  and  _298
REMARK  121  A    between atoms: _297  and  _300
REMARK  122  A    between atoms: _300  and  _301
REMARK  123  A    between atoms: _306  and  _308
REMARK  124  A    between atoms: _308  and  _309
REMARK  125  A    between atoms: _308  and  _311
REMARK  126  A    between atoms: _311  and  _312
REMARK  127  A    between atoms: _312  and  _313
REMARK  128  A    between atoms: _316  and  _318
REMARK  129  A    between atoms: _318  and  _319
REMARK  130  A    between atoms: _318  and  _321
REMARK  131  A    between atoms: _321  and  _322
REMARK  132  A    between atoms: _322  and  _323
REMARK  133  A    between atoms: _328  and  _330
REMARK  134  A    between atoms: _330  and  _331
REMARK  135  A    between atoms: _330  and  _333
REMARK  136  A    between atoms: _333  and  _334
REMARK  137  A    between atoms: _336  and  _338
REMARK  138  A    between atoms: _338  and  _339
REMARK  139  A    between atoms: _338  and  _341
REMARK  140  A    between atoms: _341  and  _342
REMARK  141  A    between atoms: _348  and  _350
REMARK  142  A    between atoms: _350  and  _351
REMARK  143  A    between atoms: _350  and  _353
REMARK  144  A    between atoms: _356  and  _358
REMARK  145  A    between atoms: _358  and  _359
REMARK  146  A    between atoms: _358  and  _361
REMARK  147  A    between atoms: _361  and  _362
REMARK  148  A    between atoms: _365  and  _367
REMARK  149  A    between atoms: _367  and  _368
REMARK  150  A    between atoms: _367  and  _370
REMARK  151  A    between atoms: _370  and  _371
REMARK  152  A    between atoms: _374  and  _376
REMARK  153  A    between atoms: _376  and  _377
REMARK  154  A    between atoms: _376  and  _379
REMARK  155  A    between atoms: _379  and  _380
REMARK  156  A    between atoms: _383  and  _385
REMARK  157  A    between atoms: _385  and  _386
REMARK  158  A    between atoms: _385  and  _388
REMARK  159  A    between atoms: _388  and  _389
REMARK  160  A    between atoms: _392  and  _394
REMARK  161  A    between atoms: _394  and  _395
REMARK  162  A    between atoms: _394  and  _397
REMARK  163  A    between atoms: _397  and  _398
REMARK  164  A    between atoms: _403  and  _404
REMARK  165  A    between atoms: _406  and  _408
REMARK  166  A    between atoms: _408  and  _409
REMARK  167  A    between atoms: _408  and  _411
REMARK  168  A    between atoms: _411  and  _412
REMARK  169  A    between atoms: _417  and  _418
REMARK  170  A    between atoms: _420  and  _422
REMARK  171  A    between atoms: _422  and  _423
REMARK  172  A    between atoms: _422  and  _425
REMARK  173  A    between atoms: _425  and  _426
REMARK  174  A    between atoms: _429  and  _431
REMARK  175  A    between atoms: _431  and  _432
REMARK  176  A    between atoms: _431  and  _434
REMARK  177  A    between atoms: _434  and  _435
REMARK  178  A    between atoms: _435  and  _436
REMARK  179  A    between atoms: _441  and  _443
REMARK  180  A    between atoms: _443  and  _444
REMARK  181  A    between atoms: _443  and  _446
REMARK  182  A    between atoms: _449  and  _451
REMARK  183  A    between atoms: _451  and  _452
REMARK  184  A    between atoms: _451  and  _454
REMARK  185  A    between atoms: _454  and  _455
REMARK  186  A    between atoms: _458  and  _460
REMARK  187  A    between atoms: _460  and  _461
REMARK  188  A    between atoms: _460  and  _463
REMARK  189  A    between atoms: _463  and  _464
REMARK  190  A    between atoms: _466  and  _468
REMARK  191  A    between atoms: _468  and  _469
REMARK  192  A    between atoms: _471  and  _473
REMARK  193  A    between atoms: _473  and  _474
REMARK  194  A    between atoms: _473  and  _476
REMARK  195  A    between atoms: _476  and  _477
REMARK  196  A    between atoms: _477  and  _772
REMARK  197  A    between atoms: _478  and  _480
REMARK  198  A    between atoms: _480  and  _481
REMARK  199  A    between atoms: _480  and  _483
REMARK  200  A    between atoms: _483  and  _484
REMARK  201  A    between atoms: _489  and  _490
REMARK  202  A    between atoms: _492  and  _494
REMARK  203  A    between atoms: _494  and  _495
REMARK  204  A    between atoms: _494  and  _497
REMARK  205  A    between atoms: _497  and  _498
REMARK  206  A    between atoms: _498  and  _499
REMARK  207  A    between atoms: _504  and  _506
REMARK  208  A    between atoms: _506  and  _507
REMARK  209  A    between atoms: _506  and  _509
REMARK  210  A    between atoms: _509  and  _510
REMARK  211  A    between atoms: _510  and  _511
REMARK  212  A    between atoms: _516  and  _518
REMARK  213  A    between atoms: _518  and  _519
REMARK  214  A    between atoms: _518  and  _521
REMARK  215  A    between atoms: _521  and  _522
REMARK  216  A    between atoms: _527  and  _528
REMARK  217  A    between atoms: _530  and  _532
REMARK  218  A    between atoms: _532  and  _533
REMARK  219  A    between atoms: _536  and  _538
REMARK  220  A    between atoms: _538  and  _539
REMARK  221  A    between atoms: _538  and  _541
REMARK  222  A    between atoms: _541  and  _542
REMARK  223  A    between atoms: _547  and  _548
REMARK  224  A    between atoms: _550  and  _552
REMARK  225  A    between atoms: _552  and  _553
REMARK  226  A    between atoms: _552  and  _555
REMARK  227  A    between atoms: _555  and  _556
REMARK  228  A    between atoms: _561  and  _562
REMARK  229  A    between atoms: _564  and  _566
REMARK  230  A    between atoms: _566  and  _567
REMARK  231  A    between atoms: _566  and  _569
REMARK  232  A    between atoms: _569  and  _570
REMARK  233  A    between atoms: _573  and  _575
REMARK  234  A    between atoms: _575  and  _576
REMARK  235  A    between atoms: _575  and  _578
REMARK  236  A    between atoms: _578  and  _579
REMARK  237  A    between atoms: _589  and  _591
REMARK  238  A    between atoms: _591  and  _592
REMARK  239  A    between atoms: _595  and  _597
REMARK  240  A    between atoms: _597  and  _598
REMARK  241  A    between atoms: _601  and  _603
REMARK  242  A    between atoms: _603  and  _604
REMARK  243  A    between atoms: _603  and  _606
REMARK  244  A    between atoms: _606  and  _607
REMARK  245  A    between atoms: _610  and  _612
REMARK  246  A    between atoms: _612  and  _613
REMARK  247  A    between atoms: _612  and  _615
REMARK  248  A    between atoms: _615  and  _616
REMARK  249  A    between atoms: _619  and  _621
REMARK  250  A    between atoms: _621  and  _622
REMARK  251  A    between atoms: _621  and  _624
REMARK  252  A    between atoms: _624  and  _625
REMARK  253  A    between atoms: _628  and  _630
REMARK  254  A    between atoms: _630  and  _631
REMARK  255  A    between atoms: _630  and  _633
REMARK  256  A    between atoms: _633  and  _634
REMARK  257  A    between atoms: _634  and  _635
REMARK  258  A    between atoms: _635  and  _636
REMARK  259  A    between atoms: _636  and  _637
REMARK  260  A    between atoms: _641  and  _643
REMARK  261  A    between atoms: _643  and  _644
REMARK  262  A    between atoms: _643  and  _646
REMARK  263  A    between atoms: _646  and  _647
REMARK  264  A    between atoms: _652  and  _654
REMARK  265  A    between atoms: _654  and  _655
REMARK  266  A    between atoms: _654  and  _657
REMARK  267  A    between atoms: _657  and  _658
REMARK  268  A    between atoms: _658  and  _659
REMARK  269  A    between atoms: _659  and  _660
REMARK  270  A    between atoms: _660  and  _661
REMARK  271  A    between atoms: _665  and  _667
REMARK  272  A    between atoms: _667  and  _668
REMARK  273  A    between atoms: _667  and  _670
REMARK  274  A    between atoms: _670  and  _671
REMARK  275  A    between atoms: _681  and  _683
REMARK  276  A    between atoms: _683  and  _684
REMARK  277  A    between atoms: _687  and  _689
REMARK  278  A    between atoms: _689  and  _690
REMARK  279  A    between atoms: _692  and  _694
REMARK  280  A    between atoms: _694  and  _695
REMARK  281  A    between atoms: _694  and  _697
REMARK  282  A    between atoms: _697  and  _698
REMARK  283  A    between atoms: _698  and  _699
REMARK  284  A    between atoms: _702  and  _704
REMARK  285  A    between atoms: _704  and  _705
REMARK  286  A    between atoms: _708  and  _710
REMARK  287  A    between atoms: _710  and  _711
REMARK  288  A    between atoms: _710  and  _713
REMARK  289  A    between atoms: _713  and  _714
REMARK  290  A    between atoms: _714  and  _715
REMARK  291  A    between atoms: _715  and  _716
REMARK  292  A    between atoms: _725  and  _727
REMARK  293  A    between atoms: _727  and  _728
REMARK  294  A    between atoms: _727  and  _730
REMARK  295  A    between atoms: _730  and  _731
REMARK  296  A    between atoms: _734  and  _736
REMARK  297  A    between atoms: _736  and  _737
REMARK  298  A    between atoms: _736  and  _739
REMARK  299  A    between atoms: _739  and  _740
REMARK  300  A    between atoms: _745  and  _746
REMARK  301  A    between atoms: _748  and  _750
REMARK  302  A    between atoms: _750  and  _751
REMARK  303  A    between atoms: _750  and  _753
REMARK  304  A    between atoms: _753  and  _754
REMARK  305  A    between atoms: _757  and  _759
REMARK  306  A    between atoms: _759  and  _760
REMARK  307  A    between atoms: _759  and  _762
REMARK  308  A    between atoms: _762  and  _763
REMARK  309  A    between atoms: _766  and  _768
REMARK  310  A    between atoms: _768  and  _769
REMARK  311  A    between atoms: _768  and  _771
REMARK  312  A    between atoms: _771  and  _772
REMARK  313  A    between atoms: _773  and  _775
REMARK  314  A    between atoms: _775  and  _776
REMARK  315  A    between atoms: _775  and  _778
REMARK  316  A    between atoms: _781  and  _783
REMARK  317  A    between atoms: _783  and  _784
REMARK  318  A    between atoms: _783  and  _786
REMARK  319  A    between atoms: _786  and  _787
REMARK  320  A    between atoms: _787  and  _788
REMARK  321  A    between atoms: _791  and  _793
REMARK  322  A    between atoms: _793  and  _794
REMARK  323  A    between atoms: _793  and  _796
REMARK  324  A    between atoms: _796  and  _797
REMARK  325  A    between atoms: _807  and  _809
REMARK  326  A    between atoms: _809  and  _810
REMARK  327  A    between atoms: _809  and  _812
REMARK  328  A    between atoms: _812  and  _813
REMARK  329  A    between atoms: _816  and  _818
REMARK  330  A    between atoms: _818  and  _819
REMARK  331  A    between atoms: _818  and  _821
REMARK  332  A    between atoms: _821  and  _822
REMARK  333  A    between atoms: _822  and  _823
REMARK  334  A    between atoms: _823  and  _824
REMARK  335  A    between atoms: _833  and  _835
REMARK  336  A    between atoms: _835  and  _836
REMARK  337  A    between atoms: _835  and  _838
REMARK  338  A    between atoms: _838  and  _839
REMARK  339  A    between atoms: _844  and  _845
REMARK                            x       y       z     vdW  Elec       q    Type
REMARK                         _______ _______ _______ _____ _____    ______ ____
ROOT
ATOM      1  O   HOH     1      43.023  57.221  -9.454  0.00  0.00    +0.000 OA
ENDROOT
TORSDOF 0
REMARK  Name = ../refined-set-2016/1fzo/1fzo_pocket.pdb
REMARK  339 active torsions:
REMARK  status: ('A' for Active; 'I' for Inactive)
REMARK    1  A    between atoms: _1  and  _3
REMARK    2  A    between atoms: _3  and  _4
REMARK    3  A    between atoms: _3  and  _6
REMARK    4  A    between atoms: _6  and  _7
REMARK    5  A    between atoms: _10  and  _12
REMARK    6  A    between atoms: _12  and  _13
REMARK    7  A    between atoms: _12  and  _15
REMARK    8  A    between atoms: _15  and  _16
REMARK    9  A    between atoms: _16  and  _17
REMARK   10  A    between atoms: _17  and  _18
REMARK   11  A    between atoms: _27  and  _29
REMARK   12  A    between atoms: _29  and  _30
REMARK   13  A    between atoms: _29  and  _32
REMARK   14  A    between atoms: _32  and  _33
REMARK   15  A    between atoms: _38  and  _39
REMARK   16  A    between atoms: _41  and  _43
REMARK   17  A    between atoms: _43  and  _44
REMARK   18  A    between atoms: _43  and  _46
REMARK   19  A    between atoms: _46  and  _47
REMARK   20  A    between atoms: _53  and  _55
REMARK   21  A    between atoms: _55  and  _56
REMARK   22  A    between atoms: _55  and  _58
REMARK   23  A    between atoms: _61  and  _63
REMARK   24  A    between atoms: _63  and  _64
REMARK   25  A    between atoms: _63  and  _66
REMARK   26  A    between atoms: _66  and  _67
REMARK   27  A    between atoms: _70  and  _72
REMARK   28  A    between atoms: _72  and  _73
REMARK   29  A    between atoms: _72  and  _75
REMARK   30  A    between atoms: _75  and  _76
REMARK   31  A    between atoms: _82  and  _84
REMARK   32  A    between atoms: _84  and  _85
REMARK   33  A    between atoms: _84  and  _87
REMARK   34  A    between atoms: _87  and  _88
REMARK   35  A    between atoms: _91  and  _93
REMARK   36  A    between atoms: _93  and  _94
REMARK   37  A    between atoms: _93  and  _96
REMARK   38  A    between atoms: _96  and  _97
REMARK   39  A    between atoms: _99  and  _101
REMARK   40  A    between atoms: _101  and  _102
REMARK   41  A    between atoms: _101  and  _104
REMARK   42  A    between atoms: _107  and  _109
REMARK   43  A    between atoms: _109  and  _110
REMARK   44  A    between atoms: _112  and  _114
REMARK   45  A    between atoms: _114  and  _115
REMARK   46  A    between atoms: _114  and  _117
REMARK   47  A    between atoms: _120  and  _122
REMARK   48  A    between atoms: _122  and  _123
REMARK   49  A    between atoms: _122  and  _125
REMARK   50  A    between atoms: _125  and  _126
REMARK   51  A    between atoms: _132  and  _134
REMARK   52  A    between atoms: _134  and  _135
REMARK   53  A    between atoms: _134  and  _137
REMARK   54  A    between atoms: _140  and  _142
REMARK   55  A    between atoms: _142  and  _143
REMARK   56  A    between atoms: _142  and  _145
REMARK   57  A    between atoms: _145  and  _146
REMARK   58  A    between atoms: _151  and  _152
REMARK   59  A    between atoms: _154  and  _156
REMARK   60  A    between atoms: _156  and  _157
REMARK   61  A    between atoms: _156  and  _159
REMARK   62  A    between atoms: _159  and  _160
REMARK   63  A    between atoms: _160  and  _161
REMARK   64  A    between atoms: _163  and  _165
REMARK   65  A    between atoms: _165  and  _166
REMARK   66  A    between atoms: _165  and  _168
REMARK   67  A    between atoms: _168  and  _169
REMARK   68  A    between atoms: _169  and  _170
REMARK   69  A    between atoms: _173  and  _175
REMARK   70  A    between atoms: _175  and  _176
REMARK   71  A    between atoms: _175  and  _178
REMARK   72  A    between atoms: _178  and  _179
REMARK   73  A    between atoms: _179  and  _180
REMARK   74  A    between atoms: _183  and  _185
REMARK   75  A    between atoms: _185  and  _186
REMARK   76  A    between atoms: _185  and  _188
REMARK   77  A    between atoms: _188  and  _189
REMARK   78  A    between atoms: _194  and  _195
REMARK   79  A    between atoms: _197  and  _199
REMARK   80  A    between atoms: _199  and  _200
REMARK   81  A    between atoms: _199  and  _202
REMARK   82  A    between atoms: _202  and  _203
REMARK   83  A    between atoms: _213  and  _215
REMARK   84  A    between atoms: _215  and  _216
REMARK   85  A    between atoms: _215  and  _218
REMARK   86  A    between atoms: _218  and  _219
REMARK   87  A    between atoms: _219  and  _220
REMARK   88  A    between atoms: _223  and  _225
REMARK   89  A    between atoms: _225  and  _226
REMARK   90  A    between atoms: _225  and  _228
REMARK   91  A    between atoms: _228  and  _229
REMARK   92  A    between atoms: _229  and  _230
REMARK   93  A    between atoms: _230  and  _231
REMARK   94  A    between atoms: _240  and  _242
REMARK   95  A    between atoms: _242  and  _243
REMARK   96  A    between atoms: _242  and  _245
REMARK   97  A    between atoms: _245  and  _246
REMARK   98  A    between atoms: _246  and  _247
REMARK   99  A    between atoms: _250  and  _252
REMARK  100  A    between atoms: _252  and  _253
REMARK  101  A    between atoms: _252  and  _255
REMARK  102  A    between atoms: _255  and  _256
REMARK  103  A    between atoms: _259  and  _261
REMARK  104  A    between atoms: _261  and  _262
REMARK  105  A    between atoms: _261  and  _264
REMARK  106  A    between atoms: _264  and  _265
REMARK  107  A    between atoms: _265  and  _266
REMARK  108  A    between atoms: _271  and  _273
REMARK  109  A    between atoms: _273  and  _274
REMARK  110  A    between atoms: _273  and  _276
REMARK  111  A    between atoms: _276  and  _277
REMARK  112  A    between atoms: _277  and  _278
REMARK  113  A    between atoms: _278  and  _279
REMARK  114  A    between atoms: _279  and  _280
REMARK  115  A    between atoms: _284  and  _286
REMARK  116  A    between atoms: _286  and  _287
REMARK  117  A    between atoms: _290  and  _292
REMARK  118  A    between atoms: _292  and  _293
REMARK  119  A    between atoms: _295  and  _297
REMARK  120  A    between atoms: _297  and  _298
REMARK  121  A    between atoms: _297  and  _300
REMARK  122  A    between atoms: _300  and  _301
REMARK  123  A    between atoms: _306  and  _308
REMARK  124  A    between atoms: _308  and  _309
REMARK  125  A    between atoms: _308  and  _311
REMARK  126  A    between atoms: _311  and  _312
REMARK  127  A    between atoms: _312  and  _313
REMARK  128  A    between atoms: _316  and  _318
REMARK  129  A    between atoms: _318  and  _319
REMARK  130  A    between atoms: _318  and  _321
REMARK  131  A    between atoms: _321  and  _322
REMARK  132  A    between atoms: _322  and  _323
REMARK  133  A    between atoms: _328  and  _330
REMARK  134  A    between atoms: _330  and  _331
REMARK  135  A    between atoms: _330  and  _333
REMARK  136  A    between atoms: _333  and  _334
REMARK  137  A    between atoms: _336  and  _338
REMARK  138  A    between atoms: _338  and  _339
REMARK  139  A    between atoms: _338  and  _341
REMARK  140  A    between atoms: _341  and  _342
REMARK  141  A    between atoms: _348  and  _350
REMARK  142  A    between atoms: _350  and  _351
REMARK  143  A    between atoms: _350  and  _353
REMARK  144  A    between atoms: _356  and  _358
REMARK  145  A    between atoms: _358  and  _359
REMARK  146  A    between atoms: _358  and  _361
REMARK  147  A    between atoms: _361  and  _362
REMARK  148  A    between atoms: _365  and  _367
REMARK  149  A    between atoms: _367  and  _368
REMARK  150  A    between atoms: _367  and  _370
REMARK  151  A    between atoms: _370  and  _371
REMARK  152  A    between atoms: _374  and  _376
REMARK  153  A    between atoms: _376  and  _377
REMARK  154  A    between atoms: _376  and  _379
REMARK  155  A    between atoms: _379  and  _380
REMARK  156  A    between atoms: _383  and  _385
REMARK  157  A    between atoms: _385  and  _386
REMARK  158  A    between atoms: _385  and  _388
REMARK  159  A    between atoms: _388  and  _389
REMARK  160  A    between atoms: _392  and  _394
REMARK  161  A    between atoms: _394  and  _395
REMARK  162  A    between atoms: _394  and  _397
REMARK  163  A    between atoms: _397  and  _398
REMARK  164  A    between atoms: _403  and  _404
REMARK  165  A    between atoms: _406  and  _408
REMARK  166  A    between atoms: _408  and  _409
REMARK  167  A    between atoms: _408  and  _411
REMARK  168  A    between atoms: _411  and  _412
REMARK  169  A    between atoms: _417  and  _418
REMARK  170  A    between atoms: _420  and  _422
REMARK  171  A    between atoms: _422  and  _423
REMARK  172  A    between atoms: _422  and  _425
REMARK  173  A    between atoms: _425  and  _426
REMARK  174  A    between atoms: _429  and  _431
REMARK  175  A    between atoms: _431  and  _432
REMARK  176  A    between atoms: _431  and  _434
REMARK  177  A    between atoms: _434  and  _435
REMARK  178  A    between atoms: _435  and  _436
REMARK  179  A    between atoms: _441  and  _443
REMARK  180  A    between atoms: _443  and  _444
REMARK  181  A    between atoms: _443  and  _446
REMARK  182  A    between atoms: _449  and  _451
REMARK  183  A    between atoms: _451  and  _452
REMARK  184  A    between atoms: _451  and  _454
REMARK  185  A    between atoms: _454  and  _455
REMARK  186  A    between atoms: _458  and  _460
REMARK  187  A    between atoms: _460  and  _461
REMARK  188  A    between atoms: _460  and  _463
REMARK  189  A    between atoms: _463  and  _464
REMARK  190  A    between atoms: _466  and  _468
REMARK  191  A    between atoms: _468  and  _469
REMARK  192  A    between atoms: _471  and  _473
REMARK  193  A    between atoms: _473  and  _474
REMARK  194  A    between atoms: _473  and  _476
REMARK  195  A    between atoms: _476  and  _477
REMARK  196  A    between atoms: _477  and  _772
REMARK  197  A    between atoms: _478  and  _480
REMARK  198  A    between atoms: _480  and  _481
REMARK  199  A    between atoms: _480  and  _483
REMARK  200  A    between atoms: _483  and  _484
REMARK  201  A    between atoms: _489  and  _490
REMARK  202  A    between atoms: _492  and  _494
REMARK  203  A    between atoms: _494  and  _495
REMARK  204  A    between atoms: _494  and  _497
REMARK  205  A    between atoms: _497  and  _498
REMARK  206  A    between atoms: _498  and  _499
REMARK  207  A    between atoms: _504  and  _506
REMARK  208  A    between atoms: _506  and  _507
REMARK  209  A    between atoms: _506  and  _509
REMARK  210  A    between atoms: _509  and  _510
REMARK  211  A    between atoms: _510  and  _511
REMARK  212  A    between atoms: _516  and  _518
REMARK  213  A    between atoms: _518  and  _519
REMARK  214  A    between atoms: _518  and  _521
REMARK  215  A    between atoms: _521  and  _522
REMARK  216  A    between atoms: _527  and  _528
REMARK  217  A    between atoms: _530  and  _532
REMARK  218  A    between atoms: _532  and  _533
REMARK  219  A    between atoms: _536  and  _538
REMARK  220  A    between atoms: _538  and  _539
REMARK  221  A    between atoms: _538  and  _541
REMARK  222  A    between atoms: _541  and  _542
REMARK  223  A    between atoms: _547  and  _548
REMARK  224  A    between atoms: _550  and  _552
REMARK  225  A    between atoms: _552  and  _553
REMARK  226  A    between atoms: _552  and  _555
REMARK  227  A    between atoms: _555  and  _556
REMARK  228  A    between atoms: _561  and  _562
REMARK  229  A    between atoms: _564  and  _566
REMARK  230  A    between atoms: _566  and  _567
REMARK  231  A    between atoms: _566  and  _569
REMARK  232  A    between atoms: _569  and  _570
REMARK  233  A    between atoms: _573  and  _575
REMARK  234  A    between atoms: _575  and  _576
REMARK  235  A    between atoms: _575  and  _578
REMARK  236  A    between atoms: _578  and  _579
REMARK  237  A    between atoms: _589  and  _591
REMARK  238  A    between atoms: _591  and  _592
REMARK  239  A    between atoms: _595  and  _597
REMARK  240  A    between atoms: _597  and  _598
REMARK  241  A    between atoms: _601  and  _603
REMARK  242  A    between atoms: _603  and  _604
REMARK  243  A    between atoms: _603  and  _606
REMARK  244  A    between atoms: _606  and  _607
REMARK  245  A    between atoms: _610  and  _612
REMARK  246  A    between atoms: _612  and  _613
REMARK  247  A    between atoms: _612  and  _615
REMARK  248  A    between atoms: _615  and  _616
REMARK  249  A    between atoms: _619  and  _621
REMARK  250  A    between atoms: _621  and  _622
REMARK  251  A    between atoms: _621  and  _624
REMARK  252  A    between atoms: _624  and  _625
REMARK  253  A    between atoms: _628  and  _630
REMARK  254  A    between atoms: _630  and  _631
REMARK  255  A    between atoms: _630  and  _633
REMARK  256  A    between atoms: _633  and  _634
REMARK  257  A    between atoms: _634  and  _635
REMARK  258  A    between atoms: _635  and  _636
REMARK  259  A    between atoms: _636  and  _637
REMARK  260  A    between atoms: _641  and  _643
REMARK  261  A    between atoms: _643  and  _644
REMARK  262  A    between atoms: _643  and  _646
REMARK  263  A    between atoms: _646  and  _647
REMARK  264  A    between atoms: _652  and  _654
REMARK  265  A    between atoms: _654  and  _655
REMARK  266  A    between atoms: _654  and  _657
REMARK  267  A    between atoms: _657  and  _658
REMARK  268  A    between atoms: _658  and  _659
REMARK  269  A    between atoms: _659  and  _660
REMARK  270  A    between atoms: _660  and  _661
REMARK  271  A    between atoms: _665  and  _667
REMARK  272  A    between atoms: _667  and  _668
REMARK  273  A    between atoms: _667  and  _670
REMARK  274  A    between atoms: _670  and  _671
REMARK  275  A    between atoms: _681  and  _683
REMARK  276  A    between atoms: _683  and  _684
REMARK  277  A    between atoms: _687  and  _689
REMARK  278  A    between atoms: _689  and  _690
REMARK  279  A    between atoms: _692  and  _694
REMARK  280  A    between atoms: _694  and  _695
REMARK  281  A    between atoms: _694  and  _697
REMARK  282  A    between atoms: _697  and  _698
REMARK  283  A    between atoms: _698  and  _699
REMARK  284  A    between atoms: _702  and  _704
REMARK  285  A    between atoms: _704  and  _705
REMARK  286  A    between atoms: _708  and  _710
REMARK  287  A    between atoms: _710  and  _711
REMARK  288  A    between atoms: _710  and  _713
REMARK  289  A    between atoms: _713  and  _714
REMARK  290  A    between atoms: _714  and  _715
REMARK  291  A    between atoms: _715  and  _716
REMARK  292  A    between atoms: _725  and  _727
REMARK  293  A    between atoms: _727  and  _728
REMARK  294  A    between atoms: _727  and  _730
REMARK  295  A    between atoms: _730  and  _731
REMARK  296  A    between atoms: _734  and  _736
REMARK  297  A    between atoms: _736  and  _737
REMARK  298  A    between atoms: _736  and  _739
REMARK  299  A    between atoms: _739  and  _740
REMARK  300  A    between atoms: _745  and  _746
REMARK  301  A    between atoms: _748  and  _750
REMARK  302  A    between atoms: _750  and  _751
REMARK  303  A    between atoms: _750  and  _753
REMARK  304  A    between atoms: _753  and  _754
REMARK  305  A    between atoms: _757  and  _759
REMARK  306  A    between atoms: _759  and  _760
REMARK  307  A    between atoms: _759  and  _762
REMARK  308  A    between atoms: _762  and  _763
REMARK  309  A    between atoms: _766  and  _768
REMARK  310  A    between atoms: _768  and  _769
REMARK  311  A    between atoms: _768  and  _771
REMARK  312  A    between atoms: _771  and  _772
REMARK  313  A    between atoms: _773  and  _775
REMARK  314  A    between atoms: _775  and  _776
REMARK  315  A    between atoms: _775  and  _778
REMARK  316  A    between atoms: _781  and  _783
REMARK  317  A    between atoms: _783  and  _784
REMARK  318  A    between atoms: _783  and  _786
REMARK  319  A    between atoms: _786  and  _787
REMARK  320  A    between atoms: _787  and  _788
REMARK  321  A    between atoms: _791  and  _793
REMARK  322  A    between atoms: _793  and  _794
REMARK  323  A    between atoms: _793  and  _796
REMARK  324  A    between atoms: _796  and  _797
REMARK  325  A    between atoms: _807  and  _809
REMARK  326  A    between atoms: _809  and  _810
REMARK  327  A    between atoms: _809  and  _812
REMARK  328  A    between atoms: _812  and  _813
REMARK  329  A    between atoms: _816  and  _818
REMARK  330  A    between atoms: _818  and  _819
REMARK  331  A    between atoms: _818  and  _821
REMARK  332  A    between atoms: _821  and  _822
REMARK  333  A    between atoms: _822  and  _823
REMARK  334  A    between atoms: _823  and  _824
REMARK  335  A    between atoms: _833  and  _835
REMARK  336  A    between atoms: _835  and  _836
REMARK  337  A    between atoms: _835  and  _838
REMARK  338  A    between atoms: _838  and  _839
REMARK  339  A    between atoms: _844  and  _845
REMARK                            x       y       z     vdW  Elec       q    Type
REMARK                         _______ _______ _______ _____ _____    ______ ____
ROOT
ATOM      1  O   HOH     1      41.744  58.873  -1.067  0.00  0.00    +0.000 OA
ENDROOT
TORSDOF 0
REMARK  Name = ../refined-set-2016/1fzo/1fzo_pocket.pdb
REMARK  339 active torsions:
REMARK  status: ('A' for Active; 'I' for Inactive)
REMARK    1  A    between atoms: _1  and  _3
REMARK    2  A    between atoms: _3  and  _4
REMARK    3  A    between atoms: _3  and  _6
REMARK    4  A    between atoms: _6  and  _7
REMARK    5  A    between atoms: _10  and  _12
REMARK    6  A    between atoms: _12  and  _13
REMARK    7  A    between atoms: _12  and  _15
REMARK    8  A    between atoms: _15  and  _16
REMARK    9  A    between atoms: _16  and  _17
REMARK   10  A    between atoms: _17  and  _18
REMARK   11  A    between atoms: _27  and  _29
REMARK   12  A    between atoms: _29  and  _30
REMARK   13  A    between atoms: _29  and  _32
REMARK   14  A    between atoms: _32  and  _33
REMARK   15  A    between atoms: _38  and  _39
REMARK   16  A    between atoms: _41  and  _43
REMARK   17  A    between atoms: _43  and  _44
REMARK   18  A    between atoms: _43  and  _46
REMARK   19  A    between atoms: _46  and  _47
REMARK   20  A    between atoms: _53  and  _55
REMARK   21  A    between atoms: _55  and  _56
REMARK   22  A    between atoms: _55  and  _58
REMARK   23  A    between atoms: _61  and  _63
REMARK   24  A    between atoms: _63  and  _64
REMARK   25  A    between atoms: _63  and  _66
REMARK   26  A    between atoms: _66  and  _67
REMARK   27  A    between atoms: _70  and  _72
REMARK   28  A    between atoms: _72  and  _73
REMARK   29  A    between atoms: _72  and  _75
REMARK   30  A    between atoms: _75  and  _76
REMARK   31  A    between atoms: _82  and  _84
REMARK   32  A    between atoms: _84  and  _85
REMARK   33  A    between atoms: _84  and  _87
REMARK   34  A    between atoms: _87  and  _88
REMARK   35  A    between atoms: _91  and  _93
REMARK   36  A    between atoms: _93  and  _94
REMARK   37  A    between atoms: _93  and  _96
REMARK   38  A    between atoms: _96  and  _97
REMARK   39  A    between atoms: _99  and  _101
REMARK   40  A    between atoms: _101  and  _102
REMARK   41  A    between atoms: _101  and  _104
REMARK   42  A    between atoms: _107  and  _109
REMARK   43  A    between atoms: _109  and  _110
REMARK   44  A    between atoms: _112  and  _114
REMARK   45  A    between atoms: _114  and  _115
REMARK   46  A    between atoms: _114  and  _117
REMARK   47  A    between atoms: _120  and  _122
REMARK   48  A    between atoms: _122  and  _123
REMARK   49  A    between atoms: _122  and  _125
REMARK   50  A    between atoms: _125  and  _126
REMARK   51  A    between atoms: _132  and  _134
REMARK   52  A    between atoms: _134  and  _135
REMARK   53  A    between atoms: _134  and  _137
REMARK   54  A    between atoms: _140  and  _142
REMARK   55  A    between atoms: _142  and  _143
REMARK   56  A    between atoms: _142  and  _145
REMARK   57  A    between atoms: _145  and  _146
REMARK   58  A    between atoms: _151  and  _152
REMARK   59  A    between atoms: _154  and  _156
REMARK   60  A    between atoms: _156  and  _157
REMARK   61  A    between atoms: _156  and  _159
REMARK   62  A    between atoms: _159  and  _160
REMARK   63  A    between atoms: _160  and  _161
REMARK   64  A    between atoms: _163  and  _165
REMARK   65  A    between atoms: _165  and  _166
REMARK   66  A    between atoms: _165  and  _168
REMARK   67  A    between atoms: _168  and  _169
REMARK   68  A    between atoms: _169  and  _170
REMARK   69  A    between atoms: _173  and  _175
REMARK   70  A    between atoms: _175  and  _176
REMARK   71  A    between atoms: _175  and  _178
REMARK   72  A    between atoms: _178  and  _179
REMARK   73  A    between atoms: _179  and  _180
REMARK   74  A    between atoms: _183  and  _185
REMARK   75  A    between atoms: _185  and  _186
REMARK   76  A    between atoms: _185  and  _188
REMARK   77  A    between atoms: _188  and  _189
REMARK   78  A    between atoms: _194  and  _195
REMARK   79  A    between atoms: _197  and  _199
REMARK   80  A    between atoms: _199  and  _200
REMARK   81  A    between atoms: _199  and  _202
REMARK   82  A    between atoms: _202  and  _203
REMARK   83  A    between atoms: _213  and  _215
REMARK   84  A    between atoms: _215  and  _216
REMARK   85  A    between atoms: _215  and  _218
REMARK   86  A    between atoms: _218  and  _219
REMARK   87  A    between atoms: _219  and  _220
REMARK   88  A    between atoms: _223  and  _225
REMARK   89  A    between atoms: _225  and  _226
REMARK   90  A    between atoms: _225  and  _228
REMARK   91  A    between atoms: _228  and  _229
REMARK   92  A    between atoms: _229  and  _230
REMARK   93  A    between atoms: _230  and  _231
REMARK   94  A    between atoms: _240  and  _242
REMARK   95  A    between atoms: _242  and  _243
REMARK   96  A    between atoms: _242  and  _245
REMARK   97  A    between atoms: _245  and  _246
REMARK   98  A    between atoms: _246  and  _247
REMARK   99  A    between atoms: _250  and  _252
REMARK  100  A    between atoms: _252  and  _253
REMARK  101  A    between atoms: _252  and  _255
REMARK  102  A    between atoms: _255  and  _256
REMARK  103  A    between atoms: _259  and  _261
REMARK  104  A    between atoms: _261  and  _262
REMARK  105  A    between atoms: _261  and  _264
REMARK  106  A    between atoms: _264  and  _265
REMARK  107  A    between atoms: _265  and  _266
REMARK  108  A    between atoms: _271  and  _273
REMARK  109  A    between atoms: _273  and  _274
REMARK  110  A    between atoms: _273  and  _276
REMARK  111  A    between atoms: _276  and  _277
REMARK  112  A    between atoms: _277  and  _278
REMARK  113  A    between atoms: _278  and  _279
REMARK  114  A    between atoms: _279  and  _280
REMARK  115  A    between atoms: _284  and  _286
REMARK  116  A    between atoms: _286  and  _287
REMARK  117  A    between atoms: _290  and  _292
REMARK  118  A    between atoms: _292  and  _293
REMARK  119  A    between atoms: _295  and  _297
REMARK  120  A    between atoms: _297  and  _298
REMARK  121  A    between atoms: _297  and  _300
REMARK  122  A    between atoms: _300  and  _301
REMARK  123  A    between atoms: _306  and  _308
REMARK  124  A    between atoms: _308  and  _309
REMARK  125  A    between atoms: _308  and  _311
REMARK  126  A    between atoms: _311  and  _312
REMARK  127  A    between atoms: _312  and  _313
REMARK  128  A    between atoms: _316  and  _318
REMARK  129  A    between atoms: _318  and  _319
REMARK  130  A    between atoms: _318  and  _321
REMARK  131  A    between atoms: _321  and  _322
REMARK  132  A    between atoms: _322  and  _323
REMARK  133  A    between atoms: _328  and  _330
REMARK  134  A    between atoms: _330  and  _331
REMARK  135  A    between atoms: _330  and  _333
REMARK  136  A    between atoms: _333  and  _334
REMARK  137  A    between atoms: _336  and  _338
REMARK  138  A    between atoms: _338  and  _339
REMARK  139  A    between atoms: _338  and  _341
REMARK  140  A    between atoms: _341  and  _342
REMARK  141  A    between atoms: _348  and  _350
REMARK  142  A    between atoms: _350  and  _351
REMARK  143  A    between atoms: _350  and  _353
REMARK  144  A    between atoms: _356  and  _358
REMARK  145  A    between atoms: _358  and  _359
REMARK  146  A    between atoms: _358  and  _361
REMARK  147  A    between atoms: _361  and  _362
REMARK  148  A    between atoms: _365  and  _367
REMARK  149  A    between atoms: _367  and  _368
REMARK  150  A    between atoms: _367  and  _370
REMARK  151  A    between atoms: _370  and  _371
REMARK  152  A    between atoms: _374  and  _376
REMARK  153  A    between atoms: _376  and  _377
REMARK  154  A    between atoms: _376  and  _379
REMARK  155  A    between atoms: _379  and  _380
REMARK  156  A    between atoms: _383  and  _385
REMARK  157  A    between atoms: _385  and  _386
REMARK  158  A    between atoms: _385  and  _388
REMARK  159  A    between atoms: _388  and  _389
REMARK  160  A    between atoms: _392  and  _394
REMARK  161  A    between atoms: _394  and  _395
REMARK  162  A    between atoms: _394  and  _397
REMARK  163  A    between atoms: _397  and  _398
REMARK  164  A    between atoms: _403  and  _404
REMARK  165  A    between atoms: _406  and  _408
REMARK  166  A    between atoms: _408  and  _409
REMARK  167  A    between atoms: _408  and  _411
REMARK  168  A    between atoms: _411  and  _412
REMARK  169  A    between atoms: _417  and  _418
REMARK  170  A    between atoms: _420  and  _422
REMARK  171  A    between atoms: _422  and  _423
REMARK  172  A    between atoms: _422  and  _425
REMARK  173  A    between atoms: _425  and  _426
REMARK  174  A    between atoms: _429  and  _431
REMARK  175  A    between atoms: _431  and  _432
REMARK  176  A    between atoms: _431  and  _434
REMARK  177  A    between atoms: _434  and  _435
REMARK  178  A    between atoms: _435  and  _436
REMARK  179  A    between atoms: _441  and  _443
REMARK  180  A    between atoms: _443  and  _444
REMARK  181  A    between atoms: _443  and  _446
REMARK  182  A    between atoms: _449  and  _451
REMARK  183  A    between atoms: _451  and  _452
REMARK  184  A    between atoms: _451  and  _454
REMARK  185  A    between atoms: _454  and  _455
REMARK  186  A    between atoms: _458  and  _460
REMARK  187  A    between atoms: _460  and  _461
REMARK  188  A    between atoms: _460  and  _463
REMARK  189  A    between atoms: _463  and  _464
REMARK  190  A    between atoms: _466  and  _468
REMARK  191  A    between atoms: _468  and  _469
REMARK  192  A    between atoms: _471  and  _473
REMARK  193  A    between atoms: _473  and  _474
REMARK  194  A    between atoms: _473  and  _476
REMARK  195  A    between atoms: _476  and  _477
REMARK  196  A    between atoms: _477  and  _772
REMARK  197  A    between atoms: _478  and  _480
REMARK  198  A    between atoms: _480  and  _481
REMARK  199  A    between atoms: _480  and  _483
REMARK  200  A    between atoms: _483  and  _484
REMARK  201  A    between atoms: _489  and  _490
REMARK  202  A    between atoms: _492  and  _494
REMARK  203  A    between atoms: _494  and  _495
REMARK  204  A    between atoms: _494  and  _497
REMARK  205  A    between atoms: _497  and  _498
REMARK  206  A    between atoms: _498  and  _499
REMARK  207  A    between atoms: _504  and  _506
REMARK  208  A    between atoms: _506  and  _507
REMARK  209  A    between atoms: _506  and  _509
REMARK  210  A    between atoms: _509  and  _510
REMARK  211  A    between atoms: _510  and  _511
REMARK  212  A    between atoms: _516  and  _518
REMARK  213  A    between atoms: _518  and  _519
REMARK  214  A    between atoms: _518  and  _521
REMARK  215  A    between atoms: _521  and  _522
REMARK  216  A    between atoms: _527  and  _528
REMARK  217  A    between atoms: _530  and  _532
REMARK  218  A    between atoms: _532  and  _533
REMARK  219  A    between atoms: _536  and  _538
REMARK  220  A    between atoms: _538  and  _539
REMARK  221  A    between atoms: _538  and  _541
REMARK  222  A    between atoms: _541  and  _542
REMARK  223  A    between atoms: _547  and  _548
REMARK  224  A    between atoms: _550  and  _552
REMARK  225  A    between atoms: _552  and  _553
REMARK  226  A    between atoms: _552  and  _555
REMARK  227  A    between atoms: _555  and  _556
REMARK  228  A    between atoms: _561  and  _562
REMARK  229  A    between atoms: _564  and  _566
REMARK  230  A    between atoms: _566  and  _567
REMARK  231  A    between atoms: _566  and  _569
REMARK  232  A    between atoms: _569  and  _570
REMARK  233  A    between atoms: _573  and  _575
REMARK  234  A    between atoms: _575  and  _576
REMARK  235  A    between atoms: _575  and  _578
REMARK  236  A    between atoms: _578  and  _579
REMARK  237  A    between atoms: _589  and  _591
REMARK  238  A    between atoms: _591  and  _592
REMARK  239  A    between atoms: _595  and  _597
REMARK  240  A    between atoms: _597  and  _598
REMARK  241  A    between atoms: _601  and  _603
REMARK  242  A    between atoms: _603  and  _604
REMARK  243  A    between atoms: _603  and  _606
REMARK  244  A    between atoms: _606  and  _607
REMARK  245  A    between atoms: _610  and  _612
REMARK  246  A    between atoms: _612  and  _613
REMARK  247  A    between atoms: _612  and  _615
REMARK  248  A    between atoms: _615  and  _616
REMARK  249  A    between atoms: _619  and  _621
REMARK  250  A    between atoms: _621  and  _622
REMARK  251  A    between atoms: _621  and  _624
REMARK  252  A    between atoms: _624  and  _625
REMARK  253  A    between atoms: _628  and  _630
REMARK  254  A    between atoms: _630  and  _631
REMARK  255  A    between atoms: _630  and  _633
REMARK  256  A    between atoms: _633  and  _634
REMARK  257  A    between atoms: _634  and  _635
REMARK  258  A    between atoms: _635  and  _636
REMARK  259  A    between atoms: _636  and  _637
REMARK  260  A    between atoms: _641  and  _643
REMARK  261  A    between atoms: _643  and  _644
REMARK  262  A    between atoms: _643  and  _646
REMARK  263  A    between atoms: _646  and  _647
REMARK  264  A    between atoms: _652  and  _654
REMARK  265  A    between atoms: _654  and  _655
REMARK  266  A    between atoms: _654  and  _657
REMARK  267  A    between atoms: _657  and  _658
REMARK  268  A    between atoms: _658  and  _659
REMARK  269  A    between atoms: _659  and  _660
REMARK  270  A    between atoms: _660  and  _661
REMARK  271  A    between atoms: _665  and  _667
REMARK  272  A    between atoms: _667  and  _668
REMARK  273  A    between atoms: _667  and  _670
REMARK  274  A    between atoms: _670  and  _671
REMARK  275  A    between atoms: _681  and  _683
REMARK  276  A    between atoms: _683  and  _684
REMARK  277  A    between atoms: _687  and  _689
REMARK  278  A    between atoms: _689  and  _690
REMARK  279  A    between atoms: _692  and  _694
REMARK  280  A    between atoms: _694  and  _695
REMARK  281  A    between atoms: _694  and  _697
REMARK  282  A    between atoms: _697  and  _698
REMARK  283  A    between atoms: _698  and  _699
REMARK  284  A    between atoms: _702  and  _704
REMARK  285  A    between atoms: _704  and  _705
REMARK  286  A    between atoms: _708  and  _710
REMARK  287  A    between atoms: _710  and  _711
REMARK  288  A    between atoms: _710  and  _713
REMARK  289  A    between atoms: _713  and  _714
REMARK  290  A    between atoms: _714  and  _715
REMARK  291  A    between atoms: _715  and  _716
REMARK  292  A    between atoms: _725  and  _727
REMARK  293  A    between atoms: _727  and  _728
REMARK  294  A    between atoms: _727  and  _730
REMARK  295  A    between atoms: _730  and  _731
REMARK  296  A    between atoms: _734  and  _736
REMARK  297  A    between atoms: _736  and  _737
REMARK  298  A    between atoms: _736  and  _739
REMARK  299  A    between atoms: _739  and  _740
REMARK  300  A    between atoms: _745  and  _746
REMARK  301  A    between atoms: _748  and  _750
REMARK  302  A    between atoms: _750  and  _751
REMARK  303  A    between atoms: _750  and  _753
REMARK  304  A    between atoms: _753  and  _754
REMARK  305  A    between atoms: _757  and  _759
REMARK  306  A    between atoms: _759  and  _760
REMARK  307  A    between atoms: _759  and  _762
REMARK  308  A    between atoms: _762  and  _763
REMARK  309  A    between atoms: _766  and  _768
REMARK  310  A    between atoms: _768  and  _769
REMARK  311  A    between atoms: _768  and  _771
REMARK  312  A    between atoms: _771  and  _772
REMARK  313  A    between atoms: _773  and  _775
REMARK  314  A    between atoms: _775  and  _776
REMARK  315  A    between atoms: _775  and  _778
REMARK  316  A    between atoms: _781  and  _783
REMARK  317  A    between atoms: _783  and  _784
REMARK  318  A    between atoms: _783  and  _786
REMARK  319  A    between atoms: _786  and  _787
REMARK  320  A    between atoms: _787  and  _788
REMARK  321  A    between atoms: _791  and  _793
REMARK  322  A    between atoms: _793  and  _794
REMARK  323  A    between atoms: _793  and  _796
REMARK  324  A    between atoms: _796  and  _797
REMARK  325  A    between atoms: _807  and  _809
REMARK  326  A    between atoms: _809  and  _810
REMARK  327  A    between atoms: _809  and  _812
REMARK  328  A    between atoms: _812  and  _813
REMARK  329  A    between atoms: _816  and  _818
REMARK  330  A    between atoms: _818  and  _819
REMARK  331  A    between atoms: _818  and  _821
REMARK  332  A    between atoms: _821  and  _822
REMARK  333  A    between atoms: _822  and  _823
REMARK  334  A    between atoms: _823  and  _824
REMARK  335  A    between atoms: _833  and  _835
REMARK  336  A    between atoms: _835  and  _836
REMARK  337  A    between atoms: _835  and  _838
REMARK  338  A    between atoms: _838  and  _839
REMARK  339  A    between atoms: _844  and  _845
REMARK                            x       y       z     vdW  Elec       q    Type
REMARK                         _______ _______ _______ _____ _____    ______ ____
ROOT
ATOM      1  O   HOH     1      39.044  60.817 -22.950  0.00  0.00    +0.000 OA
ENDROOT
TORSDOF 0
REMARK  Name = ../refined-set-2016/1fzo/1fzo_pocket.pdb
REMARK  339 active torsions:
REMARK  status: ('A' for Active; 'I' for Inactive)
REMARK    1  A    between atoms: _1  and  _3
REMARK    2  A    between atoms: _3  and  _4
REMARK    3  A    between atoms: _3  and  _6
REMARK    4  A    between atoms: _6  and  _7
REMARK    5  A    between atoms: _10  and  _12
REMARK    6  A    between atoms: _12  and  _13
REMARK    7  A    between atoms: _12  and  _15
REMARK    8  A    between atoms: _15  and  _16
REMARK    9  A    between atoms: _16  and  _17
REMARK   10  A    between atoms: _17  and  _18
REMARK   11  A    between atoms: _27  and  _29
REMARK   12  A    between atoms: _29  and  _30
REMARK   13  A    between atoms: _29  and  _32
REMARK   14  A    between atoms: _32  and  _33
REMARK   15  A    between atoms: _38  and  _39
REMARK   16  A    between atoms: _41  and  _43
REMARK   17  A    between atoms: _43  and  _44
REMARK   18  A    between atoms: _43  and  _46
REMARK   19  A    between atoms: _46  and  _47
REMARK   20  A    between atoms: _53  and  _55
REMARK   21  A    between atoms: _55  and  _56
REMARK   22  A    between atoms: _55  and  _58
REMARK   23  A    between atoms: _61  and  _63
REMARK   24  A    between atoms: _63  and  _64
REMARK   25  A    between atoms: _63  and  _66
REMARK   26  A    between atoms: _66  and  _67
REMARK   27  A    between atoms: _70  and  _72
REMARK   28  A    between atoms: _72  and  _73
REMARK   29  A    between atoms: _72  and  _75
REMARK   30  A    between atoms: _75  and  _76
REMARK   31  A    between atoms: _82  and  _84
REMARK   32  A    between atoms: _84  and  _85
REMARK   33  A    between atoms: _84  and  _87
REMARK   34  A    between atoms: _87  and  _88
REMARK   35  A    between atoms: _91  and  _93
REMARK   36  A    between atoms: _93  and  _94
REMARK   37  A    between atoms: _93  and  _96
REMARK   38  A    between atoms: _96  and  _97
REMARK   39  A    between atoms: _99  and  _101
REMARK   40  A    between atoms: _101  and  _102
REMARK   41  A    between atoms: _101  and  _104
REMARK   42  A    between atoms: _107  and  _109
REMARK   43  A    between atoms: _109  and  _110
REMARK   44  A    between atoms: _112  and  _114
REMARK   45  A    between atoms: _114  and  _115
REMARK   46  A    between atoms: _114  and  _117
REMARK   47  A    between atoms: _120  and  _122
REMARK   48  A    between atoms: _122  and  _123
REMARK   49  A    between atoms: _122  and  _125
REMARK   50  A    between atoms: _125  and  _126
REMARK   51  A    between atoms: _132  and  _134
REMARK   52  A    between atoms: _134  and  _135
REMARK   53  A    between atoms: _134  and  _137
REMARK   54  A    between atoms: _140  and  _142
REMARK   55  A    between atoms: _142  and  _143
REMARK   56  A    between atoms: _142  and  _145
REMARK   57  A    between atoms: _145  and  _146
REMARK   58  A    between atoms: _151  and  _152
REMARK   59  A    between atoms: _154  and  _156
REMARK   60  A    between atoms: _156  and  _157
REMARK   61  A    between atoms: _156  and  _159
REMARK   62  A    between atoms: _159  and  _160
REMARK   63  A    between atoms: _160  and  _161
REMARK   64  A    between atoms: _163  and  _165
REMARK   65  A    between atoms: _165  and  _166
REMARK   66  A    between atoms: _165  and  _168
REMARK   67  A    between atoms: _168  and  _169
REMARK   68  A    between atoms: _169  and  _170
REMARK   69  A    between atoms: _173  and  _175
REMARK   70  A    between atoms: _175  and  _176
REMARK   71  A    between atoms: _175  and  _178
REMARK   72  A    between atoms: _178  and  _179
REMARK   73  A    between atoms: _179  and  _180
REMARK   74  A    between atoms: _183  and  _185
REMARK   75  A    between atoms: _185  and  _186
REMARK   76  A    between atoms: _185  and  _188
REMARK   77  A    between atoms: _188  and  _189
REMARK   78  A    between atoms: _194  and  _195
REMARK   79  A    between atoms: _197  and  _199
REMARK   80  A    between atoms: _199  and  _200
REMARK   81  A    between atoms: _199  and  _202
REMARK   82  A    between atoms: _202  and  _203
REMARK   83  A    between atoms: _213  and  _215
REMARK   84  A    between atoms: _215  and  _216
REMARK   85  A    between atoms: _215  and  _218
REMARK   86  A    between atoms: _218  and  _219
REMARK   87  A    between atoms: _219  and  _220
REMARK   88  A    between atoms: _223  and  _225
REMARK   89  A    between atoms: _225  and  _226
REMARK   90  A    between atoms: _225  and  _228
REMARK   91  A    between atoms: _228  and  _229
REMARK   92  A    between atoms: _229  and  _230
REMARK   93  A    between atoms: _230  and  _231
REMARK   94  A    between atoms: _240  and  _242
REMARK   95  A    between atoms: _242  and  _243
REMARK   96  A    between atoms: _242  and  _245
REMARK   97  A    between atoms: _245  and  _246
REMARK   98  A    between atoms: _246  and  _247
REMARK   99  A    between atoms: _250  and  _252
REMARK  100  A    between atoms: _252  and  _253
REMARK  101  A    between atoms: _252  and  _255
REMARK  102  A    between atoms: _255  and  _256
REMARK  103  A    between atoms: _259  and  _261
REMARK  104  A    between atoms: _261  and  _262
REMARK  105  A    between atoms: _261  and  _264
REMARK  106  A    between atoms: _264  and  _265
REMARK  107  A    between atoms: _265  and  _266
REMARK  108  A    between atoms: _271  and  _273
REMARK  109  A    between atoms: _273  and  _274
REMARK  110  A    between atoms: _273  and  _276
REMARK  111  A    between atoms: _276  and  _277
REMARK  112  A    between atoms: _277  and  _278
REMARK  113  A    between atoms: _278  and  _279
REMARK  114  A    between atoms: _279  and  _280
REMARK  115  A    between atoms: _284  and  _286
REMARK  116  A    between atoms: _286  and  _287
REMARK  117  A    between atoms: _290  and  _292
REMARK  118  A    between atoms: _292  and  _293
REMARK  119  A    between atoms: _295  and  _297
REMARK  120  A    between atoms: _297  and  _298
REMARK  121  A    between atoms: _297  and  _300
REMARK  122  A    between atoms: _300  and  _301
REMARK  123  A    between atoms: _306  and  _308
REMARK  124  A    between atoms: _308  and  _309
REMARK  125  A    between atoms: _308  and  _311
REMARK  126  A    between atoms: _311  and  _312
REMARK  127  A    between atoms: _312  and  _313
REMARK  128  A    between atoms: _316  and  _318
REMARK  129  A    between atoms: _318  and  _319
REMARK  130  A    between atoms: _318  and  _321
REMARK  131  A    between atoms: _321  and  _322
REMARK  132  A    between atoms: _322  and  _323
REMARK  133  A    between atoms: _328  and  _330
REMARK  134  A    between atoms: _330  and  _331
REMARK  135  A    between atoms: _330  and  _333
REMARK  136  A    between atoms: _333  and  _334
REMARK  137  A    between atoms: _336  and  _338
REMARK  138  A    between atoms: _338  and  _339
REMARK  139  A    between atoms: _338  and  _341
REMARK  140  A    between atoms: _341  and  _342
REMARK  141  A    between atoms: _348  and  _350
REMARK  142  A    between atoms: _350  and  _351
REMARK  143  A    between atoms: _350  and  _353
REMARK  144  A    between atoms: _356  and  _358
REMARK  145  A    between atoms: _358  and  _359
REMARK  146  A    between atoms: _358  and  _361
REMARK  147  A    between atoms: _361  and  _362
REMARK  148  A    between atoms: _365  and  _367
REMARK  149  A    between atoms: _367  and  _368
REMARK  150  A    between atoms: _367  and  _370
REMARK  151  A    between atoms: _370  and  _371
REMARK  152  A    between atoms: _374  and  _376
REMARK  153  A    between atoms: _376  and  _377
REMARK  154  A    between atoms: _376  and  _379
REMARK  155  A    between atoms: _379  and  _380
REMARK  156  A    between atoms: _383  and  _385
REMARK  157  A    between atoms: _385  and  _386
REMARK  158  A    between atoms: _385  and  _388
REMARK  159  A    between atoms: _388  and  _389
REMARK  160  A    between atoms: _392  and  _394
REMARK  161  A    between atoms: _394  and  _395
REMARK  162  A    between atoms: _394  and  _397
REMARK  163  A    between atoms: _397  and  _398
REMARK  164  A    between atoms: _403  and  _404
REMARK  165  A    between atoms: _406  and  _408
REMARK  166  A    between atoms: _408  and  _409
REMARK  167  A    between atoms: _408  and  _411
REMARK  168  A    between atoms: _411  and  _412
REMARK  169  A    between atoms: _417  and  _418
REMARK  170  A    between atoms: _420  and  _422
REMARK  171  A    between atoms: _422  and  _423
REMARK  172  A    between atoms: _422  and  _425
REMARK  173  A    between atoms: _425  and  _426
REMARK  174  A    between atoms: _429  and  _431
REMARK  175  A    between atoms: _431  and  _432
REMARK  176  A    between atoms: _431  and  _434
REMARK  177  A    between atoms: _434  and  _435
REMARK  178  A    between atoms: _435  and  _436
REMARK  179  A    between atoms: _441  and  _443
REMARK  180  A    between atoms: _443  and  _444
REMARK  181  A    between atoms: _443  and  _446
REMARK  182  A    between atoms: _449  and  _451
REMARK  183  A    between atoms: _451  and  _452
REMARK  184  A    between atoms: _451  and  _454
REMARK  185  A    between atoms: _454  and  _455
REMARK  186  A    between atoms: _458  and  _460
REMARK  187  A    between atoms: _460  and  _461
REMARK  188  A    between atoms: _460  and  _463
REMARK  189  A    between atoms: _463  and  _464
REMARK  190  A    between atoms: _466  and  _468
REMARK  191  A    between atoms: _468  and  _469
REMARK  192  A    between atoms: _471  and  _473
REMARK  193  A    between atoms: _473  and  _474
REMARK  194  A    between atoms: _473  and  _476
REMARK  195  A    between atoms: _476  and  _477
REMARK  196  A    between atoms: _477  and  _772
REMARK  197  A    between atoms: _478  and  _480
REMARK  198  A    between atoms: _480  and  _481
REMARK  199  A    between atoms: _480  and  _483
REMARK  200  A    between atoms: _483  and  _484
REMARK  201  A    between atoms: _489  and  _490
REMARK  202  A    between atoms: _492  and  _494
REMARK  203  A    between atoms: _494  and  _495
REMARK  204  A    between atoms: _494  and  _497
REMARK  205  A    between atoms: _497  and  _498
REMARK  206  A    between atoms: _498  and  _499
REMARK  207  A    between atoms: _504  and  _506
REMARK  208  A    between atoms: _506  and  _507
REMARK  209  A    between atoms: _506  and  _509
REMARK  210  A    between atoms: _509  and  _510
REMARK  211  A    between atoms: _510  and  _511
REMARK  212  A    between atoms: _516  and  _518
REMARK  213  A    between atoms: _518  and  _519
REMARK  214  A    between atoms: _518  and  _521
REMARK  215  A    between atoms: _521  and  _522
REMARK  216  A    between atoms: _527  and  _528
REMARK  217  A    between atoms: _530  and  _532
REMARK  218  A    between atoms: _532  and  _533
REMARK  219  A    between atoms: _536  and  _538
REMARK  220  A    between atoms: _538  and  _539
REMARK  221  A    between atoms: _538  and  _541
REMARK  222  A    between atoms: _541  and  _542
REMARK  223  A    between atoms: _547  and  _548
REMARK  224  A    between atoms: _550  and  _552
REMARK  225  A    between atoms: _552  and  _553
REMARK  226  A    between atoms: _552  and  _555
REMARK  227  A    between atoms: _555  and  _556
REMARK  228  A    between atoms: _561  and  _562
REMARK  229  A    between atoms: _564  and  _566
REMARK  230  A    between atoms: _566  and  _567
REMARK  231  A    between atoms: _566  and  _569
REMARK  232  A    between atoms: _569  and  _570
REMARK  233  A    between atoms: _573  and  _575
REMARK  234  A    between atoms: _575  and  _576
REMARK  235  A    between atoms: _575  and  _578
REMARK  236  A    between atoms: _578  and  _579
REMARK  237  A    between atoms: _589  and  _591
REMARK  238  A    between atoms: _591  and  _592
REMARK  239  A    between atoms: _595  and  _597
REMARK  240  A    between atoms: _597  and  _598
REMARK  241  A    between atoms: _601  and  _603
REMARK  242  A    between atoms: _603  and  _604
REMARK  243  A    between atoms: _603  and  _606
REMARK  244  A    between atoms: _606  and  _607
REMARK  245  A    between atoms: _610  and  _612
REMARK  246  A    between atoms: _612  and  _613
REMARK  247  A    between atoms: _612  and  _615
REMARK  248  A    between atoms: _615  and  _616
REMARK  249  A    between atoms: _619  and  _621
REMARK  250  A    between atoms: _621  and  _622
REMARK  251  A    between atoms: _621  and  _624
REMARK  252  A    between atoms: _624  and  _625
REMARK  253  A    between atoms: _628  and  _630
REMARK  254  A    between atoms: _630  and  _631
REMARK  255  A    between atoms: _630  and  _633
REMARK  256  A    between atoms: _633  and  _634
REMARK  257  A    between atoms: _634  and  _635
REMARK  258  A    between atoms: _635  and  _636
REMARK  259  A    between atoms: _636  and  _637
REMARK  260  A    between atoms: _641  and  _643
REMARK  261  A    between atoms: _643  and  _644
REMARK  262  A    between atoms: _643  and  _646
REMARK  263  A    between atoms: _646  and  _647
REMARK  264  A    between atoms: _652  and  _654
REMARK  265  A    between atoms: _654  and  _655
REMARK  266  A    between atoms: _654  and  _657
REMARK  267  A    between atoms: _657  and  _658
REMARK  268  A    between atoms: _658  and  _659
REMARK  269  A    between atoms: _659  and  _660
REMARK  270  A    between atoms: _660  and  _661
REMARK  271  A    between atoms: _665  and  _667
REMARK  272  A    between atoms: _667  and  _668
REMARK  273  A    between atoms: _667  and  _670
REMARK  274  A    between atoms: _670  and  _671
REMARK  275  A    between atoms: _681  and  _683
REMARK  276  A    between atoms: _683  and  _684
REMARK  277  A    between atoms: _687  and  _689
REMARK  278  A    between atoms: _689  and  _690
REMARK  279  A    between atoms: _692  and  _694
REMARK  280  A    between atoms: _694  and  _695
REMARK  281  A    between atoms: _694  and  _697
REMARK  282  A    between atoms: _697  and  _698
REMARK  283  A    between atoms: _698  and  _699
REMARK  284  A    between atoms: _702  and  _704
REMARK  285  A    between atoms: _704  and  _705
REMARK  286  A    between atoms: _708  and  _710
REMARK  287  A    between atoms: _710  and  _711
REMARK  288  A    between atoms: _710  and  _713
REMARK  289  A    between atoms: _713  and  _714
REMARK  290  A    between atoms: _714  and  _715
REMARK  291  A    between atoms: _715  and  _716
REMARK  292  A    between atoms: _725  and  _727
REMARK  293  A    between atoms: _727  and  _728
REMARK  294  A    between atoms: _727  and  _730
REMARK  295  A    between atoms: _730  and  _731
REMARK  296  A    between atoms: _734  and  _736
REMARK  297  A    between atoms: _736  and  _737
REMARK  298  A    between atoms: _736  and  _739
REMARK  299  A    between atoms: _739  and  _740
REMARK  300  A    between atoms: _745  and  _746
REMARK  301  A    between atoms: _748  and  _750
REMARK  302  A    between atoms: _750  and  _751
REMARK  303  A    between atoms: _750  and  _753
REMARK  304  A    between atoms: _753  and  _754
REMARK  305  A    between atoms: _757  and  _759
REMARK  306  A    between atoms: _759  and  _760
REMARK  307  A    between atoms: _759  and  _762
REMARK  308  A    between atoms: _762  and  _763
REMARK  309  A    between atoms: _766  and  _768
REMARK  310  A    between atoms: _768  and  _769
REMARK  311  A    between atoms: _768  and  _771
REMARK  312  A    between atoms: _771  and  _772
REMARK  313  A    between atoms: _773  and  _775
REMARK  314  A    between atoms: _775  and  _776
REMARK  315  A    between atoms: _775  and  _778
REMARK  316  A    between atoms: _781  and  _783
REMARK  317  A    between atoms: _783  and  _784
REMARK  318  A    between atoms: _783  and  _786
REMARK  319  A    between atoms: _786  and  _787
REMARK  320  A    between atoms: _787  and  _788
REMARK  321  A    between atoms: _791  and  _793
REMARK  322  A    between atoms: _793  and  _794
REMARK  323  A    between atoms: _793  and  _796
REMARK  324  A    between atoms: _796  and  _797
REMARK  325  A    between atoms: _807  and  _809
REMARK  326  A    between atoms: _809  and  _810
REMARK  327  A    between atoms: _809  and  _812
REMARK  328  A    between atoms: _812  and  _813
REMARK  329  A    between atoms: _816  and  _818
REMARK  330  A    between atoms: _818  and  _819
REMARK  331  A    between atoms: _818  and  _821
REMARK  332  A    between atoms: _821  and  _822
REMARK  333  A    between atoms: _822  and  _823
REMARK  334  A    between atoms: _823  and  _824
REMARK  335  A    between atoms: _833  and  _835
REMARK  336  A    between atoms: _835  and  _836
REMARK  337  A    between atoms: _835  and  _838
REMARK  338  A    between atoms: _838  and  _839
REMARK  339  A    between atoms: _844  and  _845
REMARK                            x       y       z     vdW  Elec       q    Type
REMARK                         _______ _______ _______ _____ _____    ______ ____
ROOT
ATOM      1  O   HOH     1      51.100  64.075  -2.621  0.00  0.00    +0.000 OA
ENDROOT
TORSDOF 0
REMARK  Name = ../refined-set-2016/1fzo/1fzo_pocket.pdb
REMARK  339 active torsions:
REMARK  status: ('A' for Active; 'I' for Inactive)
REMARK    1  A    between atoms: _1  and  _3
REMARK    2  A    between atoms: _3  and  _4
REMARK    3  A    between atoms: _3  and  _6
REMARK    4  A    between atoms: _6  and  _7
REMARK    5  A    between atoms: _10  and  _12
REMARK    6  A    between atoms: _12  and  _13
REMARK    7  A    between atoms: _12  and  _15
REMARK    8  A    between atoms: _15  and  _16
REMARK    9  A    between atoms: _16  and  _17
REMARK   10  A    between atoms: _17  and  _18
REMARK   11  A    between atoms: _27  and  _29
REMARK   12  A    between atoms: _29  and  _30
REMARK   13  A    between atoms: _29  and  _32
REMARK   14  A    between atoms: _32  and  _33
REMARK   15  A    between atoms: _38  and  _39
REMARK   16  A    between atoms: _41  and  _43
REMARK   17  A    between atoms: _43  and  _44
REMARK   18  A    between atoms: _43  and  _46
REMARK   19  A    between atoms: _46  and  _47
REMARK   20  A    between atoms: _53  and  _55
REMARK   21  A    between atoms: _55  and  _56
REMARK   22  A    between atoms: _55  and  _58
REMARK   23  A    between atoms: _61  and  _63
REMARK   24  A    between atoms: _63  and  _64
REMARK   25  A    between atoms: _63  and  _66
REMARK   26  A    between atoms: _66  and  _67
REMARK   27  A    between atoms: _70  and  _72
REMARK   28  A    between atoms: _72  and  _73
REMARK   29  A    between atoms: _72  and  _75
REMARK   30  A    between atoms: _75  and  _76
REMARK   31  A    between atoms: _82  and  _84
REMARK   32  A    between atoms: _84  and  _85
REMARK   33  A    between atoms: _84  and  _87
REMARK   34  A    between atoms: _87  and  _88
REMARK   35  A    between atoms: _91  and  _93
REMARK   36  A    between atoms: _93  and  _94
REMARK   37  A    between atoms: _93  and  _96
REMARK   38  A    between atoms: _96  and  _97
REMARK   39  A    between atoms: _99  and  _101
REMARK   40  A    between atoms: _101  and  _102
REMARK   41  A    between atoms: _101  and  _104
REMARK   42  A    between atoms: _107  and  _109
REMARK   43  A    between atoms: _109  and  _110
REMARK   44  A    between atoms: _112  and  _114
REMARK   45  A    between atoms: _114  and  _115
REMARK   46  A    between atoms: _114  and  _117
REMARK   47  A    between atoms: _120  and  _122
REMARK   48  A    between atoms: _122  and  _123
REMARK   49  A    between atoms: _122  and  _125
REMARK   50  A    between atoms: _125  and  _126
REMARK   51  A    between atoms: _132  and  _134
REMARK   52  A    between atoms: _134  and  _135
REMARK   53  A    between atoms: _134  and  _137
REMARK   54  A    between atoms: _140  and  _142
REMARK   55  A    between atoms: _142  and  _143
REMARK   56  A    between atoms: _142  and  _145
REMARK   57  A    between atoms: _145  and  _146
REMARK   58  A    between atoms: _151  and  _152
REMARK   59  A    between atoms: _154  and  _156
REMARK   60  A    between atoms: _156  and  _157
REMARK   61  A    between atoms: _156  and  _159
REMARK   62  A    between atoms: _159  and  _160
REMARK   63  A    between atoms: _160  and  _161
REMARK   64  A    between atoms: _163  and  _165
REMARK   65  A    between atoms: _165  and  _166
REMARK   66  A    between atoms: _165  and  _168
REMARK   67  A    between atoms: _168  and  _169
REMARK   68  A    between atoms: _169  and  _170
REMARK   69  A    between atoms: _173  and  _175
REMARK   70  A    between atoms: _175  and  _176
REMARK   71  A    between atoms: _175  and  _178
REMARK   72  A    between atoms: _178  and  _179
REMARK   73  A    between atoms: _179  and  _180
REMARK   74  A    between atoms: _183  and  _185
REMARK   75  A    between atoms: _185  and  _186
REMARK   76  A    between atoms: _185  and  _188
REMARK   77  A    between atoms: _188  and  _189
REMARK   78  A    between atoms: _194  and  _195
REMARK   79  A    between atoms: _197  and  _199
REMARK   80  A    between atoms: _199  and  _200
REMARK   81  A    between atoms: _199  and  _202
REMARK   82  A    between atoms: _202  and  _203
REMARK   83  A    between atoms: _213  and  _215
REMARK   84  A    between atoms: _215  and  _216
REMARK   85  A    between atoms: _215  and  _218
REMARK   86  A    between atoms: _218  and  _219
REMARK   87  A    between atoms: _219  and  _220
REMARK   88  A    between atoms: _223  and  _225
REMARK   89  A    between atoms: _225  and  _226
REMARK   90  A    between atoms: _225  and  _228
REMARK   91  A    between atoms: _228  and  _229
REMARK   92  A    between atoms: _229  and  _230
REMARK   93  A    between atoms: _230  and  _231
REMARK   94  A    between atoms: _240  and  _242
REMARK   95  A    between atoms: _242  and  _243
REMARK   96  A    between atoms: _242  and  _245
REMARK   97  A    between atoms: _245  and  _246
REMARK   98  A    between atoms: _246  and  _247
REMARK   99  A    between atoms: _250  and  _252
REMARK  100  A    between atoms: _252  and  _253
REMARK  101  A    between atoms: _252  and  _255
REMARK  102  A    between atoms: _255  and  _256
REMARK  103  A    between atoms: _259  and  _261
REMARK  104  A    between atoms: _261  and  _262
REMARK  105  A    between atoms: _261  and  _264
REMARK  106  A    between atoms: _264  and  _265
REMARK  107  A    between atoms: _265  and  _266
REMARK  108  A    between atoms: _271  and  _273
REMARK  109  A    between atoms: _273  and  _274
REMARK  110  A    between atoms: _273  and  _276
REMARK  111  A    between atoms: _276  and  _277
REMARK  112  A    between atoms: _277  and  _278
REMARK  113  A    between atoms: _278  and  _279
REMARK  114  A    between atoms: _279  and  _280
REMARK  115  A    between atoms: _284  and  _286
REMARK  116  A    between atoms: _286  and  _287
REMARK  117  A    between atoms: _290  and  _292
REMARK  118  A    between atoms: _292  and  _293
REMARK  119  A    between atoms: _295  and  _297
REMARK  120  A    between atoms: _297  and  _298
REMARK  121  A    between atoms: _297  and  _300
REMARK  122  A    between atoms: _300  and  _301
REMARK  123  A    between atoms: _306  and  _308
REMARK  124  A    between atoms: _308  and  _309
REMARK  125  A    between atoms: _308  and  _311
REMARK  126  A    between atoms: _311  and  _312
REMARK  127  A    between atoms: _312  and  _313
REMARK  128  A    between atoms: _316  and  _318
REMARK  129  A    between atoms: _318  and  _319
REMARK  130  A    between atoms: _318  and  _321
REMARK  131  A    between atoms: _321  and  _322
REMARK  132  A    between atoms: _322  and  _323
REMARK  133  A    between atoms: _328  and  _330
REMARK  134  A    between atoms: _330  and  _331
REMARK  135  A    between atoms: _330  and  _333
REMARK  136  A    between atoms: _333  and  _334
REMARK  137  A    between atoms: _336  and  _338
REMARK  138  A    between atoms: _338  and  _339
REMARK  139  A    between atoms: _338  and  _341
REMARK  140  A    between atoms: _341  and  _342
REMARK  141  A    between atoms: _348  and  _350
REMARK  142  A    between atoms: _350  and  _351
REMARK  143  A    between atoms: _350  and  _353
REMARK  144  A    between atoms: _356  and  _358
REMARK  145  A    between atoms: _358  and  _359
REMARK  146  A    between atoms: _358  and  _361
REMARK  147  A    between atoms: _361  and  _362
REMARK  148  A    between atoms: _365  and  _367
REMARK  149  A    between atoms: _367  and  _368
REMARK  150  A    between atoms: _367  and  _370
REMARK  151  A    between atoms: _370  and  _371
REMARK  152  A    between atoms: _374  and  _376
REMARK  153  A    between atoms: _376  and  _377
REMARK  154  A    between atoms: _376  and  _379
REMARK  155  A    between atoms: _379  and  _380
REMARK  156  A    between atoms: _383  and  _385
REMARK  157  A    between atoms: _385  and  _386
REMARK  158  A    between atoms: _385  and  _388
REMARK  159  A    between atoms: _388  and  _389
REMARK  160  A    between atoms: _392  and  _394
REMARK  161  A    between atoms: _394  and  _395
REMARK  162  A    between atoms: _394  and  _397
REMARK  163  A    between atoms: _397  and  _398
REMARK  164  A    between atoms: _403  and  _404
REMARK  165  A    between atoms: _406  and  _408
REMARK  166  A    between atoms: _408  and  _409
REMARK  167  A    between atoms: _408  and  _411
REMARK  168  A    between atoms: _411  and  _412
REMARK  169  A    between atoms: _417  and  _418
REMARK  170  A    between atoms: _420  and  _422
REMARK  171  A    between atoms: _422  and  _423
REMARK  172  A    between atoms: _422  and  _425
REMARK  173  A    between atoms: _425  and  _426
REMARK  174  A    between atoms: _429  and  _431
REMARK  175  A    between atoms: _431  and  _432
REMARK  176  A    between atoms: _431  and  _434
REMARK  177  A    between atoms: _434  and  _435
REMARK  178  A    between atoms: _435  and  _436
REMARK  179  A    between atoms: _441  and  _443
REMARK  180  A    between atoms: _443  and  _444
REMARK  181  A    between atoms: _443  and  _446
REMARK  182  A    between atoms: _449  and  _451
REMARK  183  A    between atoms: _451  and  _452
REMARK  184  A    between atoms: _451  and  _454
REMARK  185  A    between atoms: _454  and  _455
REMARK  186  A    between atoms: _458  and  _460
REMARK  187  A    between atoms: _460  and  _461
REMARK  188  A    between atoms: _460  and  _463
REMARK  189  A    between atoms: _463  and  _464
REMARK  190  A    between atoms: _466  and  _468
REMARK  191  A    between atoms: _468  and  _469
REMARK  192  A    between atoms: _471  and  _473
REMARK  193  A    between atoms: _473  and  _474
REMARK  194  A    between atoms: _473  and  _476
REMARK  195  A    between atoms: _476  and  _477
REMARK  196  A    between atoms: _477  and  _772
REMARK  197  A    between atoms: _478  and  _480
REMARK  198  A    between atoms: _480  and  _481
REMARK  199  A    between atoms: _480  and  _483
REMARK  200  A    between atoms: _483  and  _484
REMARK  201  A    between atoms: _489  and  _490
REMARK  202  A    between atoms: _492  and  _494
REMARK  203  A    between atoms: _494  and  _495
REMARK  204  A    between atoms: _494  and  _497
REMARK  205  A    between atoms: _497  and  _498
REMARK  206  A    between atoms: _498  and  _499
REMARK  207  A    between atoms: _504  and  _506
REMARK  208  A    between atoms: _506  and  _507
REMARK  209  A    between atoms: _506  and  _509
REMARK  210  A    between atoms: _509  and  _510
REMARK  211  A    between atoms: _510  and  _511
REMARK  212  A    between atoms: _516  and  _518
REMARK  213  A    between atoms: _518  and  _519
REMARK  214  A    between atoms: _518  and  _521
REMARK  215  A    between atoms: _521  and  _522
REMARK  216  A    between atoms: _527  and  _528
REMARK  217  A    between atoms: _530  and  _532
REMARK  218  A    between atoms: _532  and  _533
REMARK  219  A    between atoms: _536  and  _538
REMARK  220  A    between atoms: _538  and  _539
REMARK  221  A    between atoms: _538  and  _541
REMARK  222  A    between atoms: _541  and  _542
REMARK  223  A    between atoms: _547  and  _548
REMARK  224  A    between atoms: _550  and  _552
REMARK  225  A    between atoms: _552  and  _553
REMARK  226  A    between atoms: _552  and  _555
REMARK  227  A    between atoms: _555  and  _556
REMARK  228  A    between atoms: _561  and  _562
REMARK  229  A    between atoms: _564  and  _566
REMARK  230  A    between atoms: _566  and  _567
REMARK  231  A    between atoms: _566  and  _569
REMARK  232  A    between atoms: _569  and  _570
REMARK  233  A    between atoms: _573  and  _575
REMARK  234  A    between atoms: _575  and  _576
REMARK  235  A    between atoms: _575  and  _578
REMARK  236  A    between atoms: _578  and  _579
REMARK  237  A    between atoms: _589  and  _591
REMARK  238  A    between atoms: _591  and  _592
REMARK  239  A    between atoms: _595  and  _597
REMARK  240  A    between atoms: _597  and  _598
REMARK  241  A    between atoms: _601  and  _603
REMARK  242  A    between atoms: _603  and  _604
REMARK  243  A    between atoms: _603  and  _606
REMARK  244  A    between atoms: _606  and  _607
REMARK  245  A    between atoms: _610  and  _612
REMARK  246  A    between atoms: _612  and  _613
REMARK  247  A    between atoms: _612  and  _615
REMARK  248  A    between atoms: _615  and  _616
REMARK  249  A    between atoms: _619  and  _621
REMARK  250  A    between atoms: _621  and  _622
REMARK  251  A    between atoms: _621  and  _624
REMARK  252  A    between atoms: _624  and  _625
REMARK  253  A    between atoms: _628  and  _630
REMARK  254  A    between atoms: _630  and  _631
REMARK  255  A    between atoms: _630  and  _633
REMARK  256  A    between atoms: _633  and  _634
REMARK  257  A    between atoms: _634  and  _635
REMARK  258  A    between atoms: _635  and  _636
REMARK  259  A    between atoms: _636  and  _637
REMARK  260  A    between atoms: _641  and  _643
REMARK  261  A    between atoms: _643  and  _644
REMARK  262  A    between atoms: _643  and  _646
REMARK  263  A    between atoms: _646  and  _647
REMARK  264  A    between atoms: _652  and  _654
REMARK  265  A    between atoms: _654  and  _655
REMARK  266  A    between atoms: _654  and  _657
REMARK  267  A    between atoms: _657  and  _658
REMARK  268  A    between atoms: _658  and  _659
REMARK  269  A    between atoms: _659  and  _660
REMARK  270  A    between atoms: _660  and  _661
REMARK  271  A    between atoms: _665  and  _667
REMARK  272  A    between atoms: _667  and  _668
REMARK  273  A    between atoms: _667  and  _670
REMARK  274  A    between atoms: _670  and  _671
REMARK  275  A    between atoms: _681  and  _683
REMARK  276  A    between atoms: _683  and  _684
REMARK  277  A    between atoms: _687  and  _689
REMARK  278  A    between atoms: _689  and  _690
REMARK  279  A    between atoms: _692  and  _694
REMARK  280  A    between atoms: _694  and  _695
REMARK  281  A    between atoms: _694  and  _697
REMARK  282  A    between atoms: _697  and  _698
REMARK  283  A    between atoms: _698  and  _699
REMARK  284  A    between atoms: _702  and  _704
REMARK  285  A    between atoms: _704  and  _705
REMARK  286  A    between atoms: _708  and  _710
REMARK  287  A    between atoms: _710  and  _711
REMARK  288  A    between atoms: _710  and  _713
REMARK  289  A    between atoms: _713  and  _714
REMARK  290  A    between atoms: _714  and  _715
REMARK  291  A    between atoms: _715  and  _716
REMARK  292  A    between atoms: _725  and  _727
REMARK  293  A    between atoms: _727  and  _728
REMARK  294  A    between atoms: _727  and  _730
REMARK  295  A    between atoms: _730  and  _731
REMARK  296  A    between atoms: _734  and  _736
REMARK  297  A    between atoms: _736  and  _737
REMARK  298  A    between atoms: _736  and  _739
REMARK  299  A    between atoms: _739  and  _740
REMARK  300  A    between atoms: _745  and  _746
REMARK  301  A    between atoms: _748  and  _750
REMARK  302  A    between atoms: _750  and  _751
REMARK  303  A    between atoms: _750  and  _753
REMARK  304  A    between atoms: _753  and  _754
REMARK  305  A    between atoms: _757  and  _759
REMARK  306  A    between atoms: _759  and  _760
REMARK  307  A    between atoms: _759  and  _762
REMARK  308  A    between atoms: _762  and  _763
REMARK  309  A    between atoms: _766  and  _768
REMARK  310  A    between atoms: _768  and  _769
REMARK  311  A    between atoms: _768  and  _771
REMARK  312  A    between atoms: _771  and  _772
REMARK  313  A    between atoms: _773  and  _775
REMARK  314  A    between atoms: _775  and  _776
REMARK  315  A    between atoms: _775  and  _778
REMARK  316  A    between atoms: _781  and  _783
REMARK  317  A    between atoms: _783  and  _784
REMARK  318  A    between atoms: _783  and  _786
REMARK  319  A    between atoms: _786  and  _787
REMARK  320  A    between atoms: _787  and  _788
REMARK  321  A    between atoms: _791  and  _793
REMARK  322  A    between atoms: _793  and  _794
REMARK  323  A    between atoms: _793  and  _796
REMARK  324  A    between atoms: _796  and  _797
REMARK  325  A    between atoms: _807  and  _809
REMARK  326  A    between atoms: _809  and  _810
REMARK  327  A    between atoms: _809  and  _812
REMARK  328  A    between atoms: _812  and  _813
REMARK  329  A    between atoms: _816  and  _818
REMARK  330  A    between atoms: _818  and  _819
REMARK  331  A    between atoms: _818  and  _821
REMARK  332  A    between atoms: _821  and  _822
REMARK  333  A    between atoms: _822  and  _823
REMARK  334  A    between atoms: _823  and  _824
REMARK  335  A    between atoms: _833  and  _835
REMARK  336  A    between atoms: _835  and  _836
REMARK  337  A    between atoms: _835  and  _838
REMARK  338  A    between atoms: _838  and  _839
REMARK  339  A    between atoms: _844  and  _845
REMARK                            x       y       z     vdW  Elec       q    Type
REMARK                         _______ _______ _______ _____ _____    ______ ____
ROOT
ATOM      1  O   HOH     1      49.376  62.056  13.535  0.00  0.00    +0.000 OA
ENDROOT
TORSDOF 0
REMARK  Name = ../refined-set-2016/1fzo/1fzo_pocket.pdb
REMARK  339 active torsions:
REMARK  status: ('A' for Active; 'I' for Inactive)
REMARK    1  A    between atoms: _1  and  _3
REMARK    2  A    between atoms: _3  and  _4
REMARK    3  A    between atoms: _3  and  _6
REMARK    4  A    between atoms: _6  and  _7
REMARK    5  A    between atoms: _10  and  _12
REMARK    6  A    between atoms: _12  and  _13
REMARK    7  A    between atoms: _12  and  _15
REMARK    8  A    between atoms: _15  and  _16
REMARK    9  A    between atoms: _16  and  _17
REMARK   10  A    between atoms: _17  and  _18
REMARK   11  A    between atoms: _27  and  _29
REMARK   12  A    between atoms: _29  and  _30
REMARK   13  A    between atoms: _29  and  _32
REMARK   14  A    between atoms: _32  and  _33
REMARK   15  A    between atoms: _38  and  _39
REMARK   16  A    between atoms: _41  and  _43
REMARK   17  A    between atoms: _43  and  _44
REMARK   18  A    between atoms: _43  and  _46
REMARK   19  A    between atoms: _46  and  _47
REMARK   20  A    between atoms: _53  and  _55
REMARK   21  A    between atoms: _55  and  _56
REMARK   22  A    between atoms: _55  and  _58
REMARK   23  A    between atoms: _61  and  _63
REMARK   24  A    between atoms: _63  and  _64
REMARK   25  A    between atoms: _63  and  _66
REMARK   26  A    between atoms: _66  and  _67
REMARK   27  A    between atoms: _70  and  _72
REMARK   28  A    between atoms: _72  and  _73
REMARK   29  A    between atoms: _72  and  _75
REMARK   30  A    between atoms: _75  and  _76
REMARK   31  A    between atoms: _82  and  _84
REMARK   32  A    between atoms: _84  and  _85
REMARK   33  A    between atoms: _84  and  _87
REMARK   34  A    between atoms: _87  and  _88
REMARK   35  A    between atoms: _91  and  _93
REMARK   36  A    between atoms: _93  and  _94
REMARK   37  A    between atoms: _93  and  _96
REMARK   38  A    between atoms: _96  and  _97
REMARK   39  A    between atoms: _99  and  _101
REMARK   40  A    between atoms: _101  and  _102
REMARK   41  A    between atoms: _101  and  _104
REMARK   42  A    between atoms: _107  and  _109
REMARK   43  A    between atoms: _109  and  _110
REMARK   44  A    between atoms: _112  and  _114
REMARK   45  A    between atoms: _114  and  _115
REMARK   46  A    between atoms: _114  and  _117
REMARK   47  A    between atoms: _120  and  _122
REMARK   48  A    between atoms: _122  and  _123
REMARK   49  A    between atoms: _122  and  _125
REMARK   50  A    between atoms: _125  and  _126
REMARK   51  A    between atoms: _132  and  _134
REMARK   52  A    between atoms: _134  and  _135
REMARK   53  A    between atoms: _134  and  _137
REMARK   54  A    between atoms: _140  and  _142
REMARK   55  A    between atoms: _142  and  _143
REMARK   56  A    between atoms: _142  and  _145
REMARK   57  A    between atoms: _145  and  _146
REMARK   58  A    between atoms: _151  and  _152
REMARK   59  A    between atoms: _154  and  _156
REMARK   60  A    between atoms: _156  and  _157
REMARK   61  A    between atoms: _156  and  _159
REMARK   62  A    between atoms: _159  and  _160
REMARK   63  A    between atoms: _160  and  _161
REMARK   64  A    between atoms: _163  and  _165
REMARK   65  A    between atoms: _165  and  _166
REMARK   66  A    between atoms: _165  and  _168
REMARK   67  A    between atoms: _168  and  _169
REMARK   68  A    between atoms: _169  and  _170
REMARK   69  A    between atoms: _173  and  _175
REMARK   70  A    between atoms: _175  and  _176
REMARK   71  A    between atoms: _175  and  _178
REMARK   72  A    between atoms: _178  and  _179
REMARK   73  A    between atoms: _179  and  _180
REMARK   74  A    between atoms: _183  and  _185
REMARK   75  A    between atoms: _185  and  _186
REMARK   76  A    between atoms: _185  and  _188
REMARK   77  A    between atoms: _188  and  _189
REMARK   78  A    between atoms: _194  and  _195
REMARK   79  A    between atoms: _197  and  _199
REMARK   80  A    between atoms: _199  and  _200
REMARK   81  A    between atoms: _199  and  _202
REMARK   82  A    between atoms: _202  and  _203
REMARK   83  A    between atoms: _213  and  _215
REMARK   84  A    between atoms: _215  and  _216
REMARK   85  A    between atoms: _215  and  _218
REMARK   86  A    between atoms: _218  and  _219
REMARK   87  A    between atoms: _219  and  _220
REMARK   88  A    between atoms: _223  and  _225
REMARK   89  A    between atoms: _225  and  _226
REMARK   90  A    between atoms: _225  and  _228
REMARK   91  A    between atoms: _228  and  _229
REMARK   92  A    between atoms: _229  and  _230
REMARK   93  A    between atoms: _230  and  _231
REMARK   94  A    between atoms: _240  and  _242
REMARK   95  A    between atoms: _242  and  _243
REMARK   96  A    between atoms: _242  and  _245
REMARK   97  A    between atoms: _245  and  _246
REMARK   98  A    between atoms: _246  and  _247
REMARK   99  A    between atoms: _250  and  _252
REMARK  100  A    between atoms: _252  and  _253
REMARK  101  A    between atoms: _252  and  _255
REMARK  102  A    between atoms: _255  and  _256
REMARK  103  A    between atoms: _259  and  _261
REMARK  104  A    between atoms: _261  and  _262
REMARK  105  A    between atoms: _261  and  _264
REMARK  106  A    between atoms: _264  and  _265
REMARK  107  A    between atoms: _265  and  _266
REMARK  108  A    between atoms: _271  and  _273
REMARK  109  A    between atoms: _273  and  _274
REMARK  110  A    between atoms: _273  and  _276
REMARK  111  A    between atoms: _276  and  _277
REMARK  112  A    between atoms: _277  and  _278
REMARK  113  A    between atoms: _278  and  _279
REMARK  114  A    between atoms: _279  and  _280
REMARK  115  A    between atoms: _284  and  _286
REMARK  116  A    between atoms: _286  and  _287
REMARK  117  A    between atoms: _290  and  _292
REMARK  118  A    between atoms: _292  and  _293
REMARK  119  A    between atoms: _295  and  _297
REMARK  120  A    between atoms: _297  and  _298
REMARK  121  A    between atoms: _297  and  _300
REMARK  122  A    between atoms: _300  and  _301
REMARK  123  A    between atoms: _306  and  _308
REMARK  124  A    between atoms: _308  and  _309
REMARK  125  A    between atoms: _308  and  _311
REMARK  126  A    between atoms: _311  and  _312
REMARK  127  A    between atoms: _312  and  _313
REMARK  128  A    between atoms: _316  and  _318
REMARK  129  A    between atoms: _318  and  _319
REMARK  130  A    between atoms: _318  and  _321
REMARK  131  A    between atoms: _321  and  _322
REMARK  132  A    between atoms: _322  and  _323
REMARK  133  A    between atoms: _328  and  _330
REMARK  134  A    between atoms: _330  and  _331
REMARK  135  A    between atoms: _330  and  _333
REMARK  136  A    between atoms: _333  and  _334
REMARK  137  A    between atoms: _336  and  _338
REMARK  138  A    between atoms: _338  and  _339
REMARK  139  A    between atoms: _338  and  _341
REMARK  140  A    between atoms: _341  and  _342
REMARK  141  A    between atoms: _348  and  _350
REMARK  142  A    between atoms: _350  and  _351
REMARK  143  A    between atoms: _350  and  _353
REMARK  144  A    between atoms: _356  and  _358
REMARK  145  A    between atoms: _358  and  _359
REMARK  146  A    between atoms: _358  and  _361
REMARK  147  A    between atoms: _361  and  _362
REMARK  148  A    between atoms: _365  and  _367
REMARK  149  A    between atoms: _367  and  _368
REMARK  150  A    between atoms: _367  and  _370
REMARK  151  A    between atoms: _370  and  _371
REMARK  152  A    between atoms: _374  and  _376
REMARK  153  A    between atoms: _376  and  _377
REMARK  154  A    between atoms: _376  and  _379
REMARK  155  A    between atoms: _379  and  _380
REMARK  156  A    between atoms: _383  and  _385
REMARK  157  A    between atoms: _385  and  _386
REMARK  158  A    between atoms: _385  and  _388
REMARK  159  A    between atoms: _388  and  _389
REMARK  160  A    between atoms: _392  and  _394
REMARK  161  A    between atoms: _394  and  _395
REMARK  162  A    between atoms: _394  and  _397
REMARK  163  A    between atoms: _397  and  _398
REMARK  164  A    between atoms: _403  and  _404
REMARK  165  A    between atoms: _406  and  _408
REMARK  166  A    between atoms: _408  and  _409
REMARK  167  A    between atoms: _408  and  _411
REMARK  168  A    between atoms: _411  and  _412
REMARK  169  A    between atoms: _417  and  _418
REMARK  170  A    between atoms: _420  and  _422
REMARK  171  A    between atoms: _422  and  _423
REMARK  172  A    between atoms: _422  and  _425
REMARK  173  A    between atoms: _425  and  _426
REMARK  174  A    between atoms: _429  and  _431
REMARK  175  A    between atoms: _431  and  _432
REMARK  176  A    between atoms: _431  and  _434
REMARK  177  A    between atoms: _434  and  _435
REMARK  178  A    between atoms: _435  and  _436
REMARK  179  A    between atoms: _441  and  _443
REMARK  180  A    between atoms: _443  and  _444
REMARK  181  A    between atoms: _443  and  _446
REMARK  182  A    between atoms: _449  and  _451
REMARK  183  A    between atoms: _451  and  _452
REMARK  184  A    between atoms: _451  and  _454
REMARK  185  A    between atoms: _454  and  _455
REMARK  186  A    between atoms: _458  and  _460
REMARK  187  A    between atoms: _460  and  _461
REMARK  188  A    between atoms: _460  and  _463
REMARK  189  A    between atoms: _463  and  _464
REMARK  190  A    between atoms: _466  and  _468
REMARK  191  A    between atoms: _468  and  _469
REMARK  192  A    between atoms: _471  and  _473
REMARK  193  A    between atoms: _473  and  _474
REMARK  194  A    between atoms: _473  and  _476
REMARK  195  A    between atoms: _476  and  _477
REMARK  196  A    between atoms: _477  and  _772
REMARK  197  A    between atoms: _478  and  _480
REMARK  198  A    between atoms: _480  and  _481
REMARK  199  A    between atoms: _480  and  _483
REMARK  200  A    between atoms: _483  and  _484
REMARK  201  A    between atoms: _489  and  _490
REMARK  202  A    between atoms: _492  and  _494
REMARK  203  A    between atoms: _494  and  _495
REMARK  204  A    between atoms: _494  and  _497
REMARK  205  A    between atoms: _497  and  _498
REMARK  206  A    between atoms: _498  and  _499
REMARK  207  A    between atoms: _504  and  _506
REMARK  208  A    between atoms: _506  and  _507
REMARK  209  A    between atoms: _506  and  _509
REMARK  210  A    between atoms: _509  and  _510
REMARK  211  A    between atoms: _510  and  _511
REMARK  212  A    between atoms: _516  and  _518
REMARK  213  A    between atoms: _518  and  _519
REMARK  214  A    between atoms: _518  and  _521
REMARK  215  A    between atoms: _521  and  _522
REMARK  216  A    between atoms: _527  and  _528
REMARK  217  A    between atoms: _530  and  _532
REMARK  218  A    between atoms: _532  and  _533
REMARK  219  A    between atoms: _536  and  _538
REMARK  220  A    between atoms: _538  and  _539
REMARK  221  A    between atoms: _538  and  _541
REMARK  222  A    between atoms: _541  and  _542
REMARK  223  A    between atoms: _547  and  _548
REMARK  224  A    between atoms: _550  and  _552
REMARK  225  A    between atoms: _552  and  _553
REMARK  226  A    between atoms: _552  and  _555
REMARK  227  A    between atoms: _555  and  _556
REMARK  228  A    between atoms: _561  and  _562
REMARK  229  A    between atoms: _564  and  _566
REMARK  230  A    between atoms: _566  and  _567
REMARK  231  A    between atoms: _566  and  _569
REMARK  232  A    between atoms: _569  and  _570
REMARK  233  A    between atoms: _573  and  _575
REMARK  234  A    between atoms: _575  and  _576
REMARK  235  A    between atoms: _575  and  _578
REMARK  236  A    between atoms: _578  and  _579
REMARK  237  A    between atoms: _589  and  _591
REMARK  238  A    between atoms: _591  and  _592
REMARK  239  A    between atoms: _595  and  _597
REMARK  240  A    between atoms: _597  and  _598
REMARK  241  A    between atoms: _601  and  _603
REMARK  242  A    between atoms: _603  and  _604
REMARK  243  A    between atoms: _603  and  _606
REMARK  244  A    between atoms: _606  and  _607
REMARK  245  A    between atoms: _610  and  _612
REMARK  246  A    between atoms: _612  and  _613
REMARK  247  A    between atoms: _612  and  _615
REMARK  248  A    between atoms: _615  and  _616
REMARK  249  A    between atoms: _619  and  _621
REMARK  250  A    between atoms: _621  and  _622
REMARK  251  A    between atoms: _621  and  _624
REMARK  252  A    between atoms: _624  and  _625
REMARK  253  A    between atoms: _628  and  _630
REMARK  254  A    between atoms: _630  and  _631
REMARK  255  A    between atoms: _630  and  _633
REMARK  256  A    between atoms: _633  and  _634
REMARK  257  A    between atoms: _634  and  _635
REMARK  258  A    between atoms: _635  and  _636
REMARK  259  A    between atoms: _636  and  _637
REMARK  260  A    between atoms: _641  and  _643
REMARK  261  A    between atoms: _643  and  _644
REMARK  262  A    between atoms: _643  and  _646
REMARK  263  A    between atoms: _646  and  _647
REMARK  264  A    between atoms: _652  and  _654
REMARK  265  A    between atoms: _654  and  _655
REMARK  266  A    between atoms: _654  and  _657
REMARK  267  A    between atoms: _657  and  _658
REMARK  268  A    between atoms: _658  and  _659
REMARK  269  A    between atoms: _659  and  _660
REMARK  270  A    between atoms: _660  and  _661
REMARK  271  A    between atoms: _665  and  _667
REMARK  272  A    between atoms: _667  and  _668
REMARK  273  A    between atoms: _667  and  _670
REMARK  274  A    between atoms: _670  and  _671
REMARK  275  A    between atoms: _681  and  _683
REMARK  276  A    between atoms: _683  and  _684
REMARK  277  A    between atoms: _687  and  _689
REMARK  278  A    between atoms: _689  and  _690
REMARK  279  A    between atoms: _692  and  _694
REMARK  280  A    between atoms: _694  and  _695
REMARK  281  A    between atoms: _694  and  _697
REMARK  282  A    between atoms: _697  and  _698
REMARK  283  A    between atoms: _698  and  _699
REMARK  284  A    between atoms: _702  and  _704
REMARK  285  A    between atoms: _704  and  _705
REMARK  286  A    between atoms: _708  and  _710
REMARK  287  A    between atoms: _710  and  _711
REMARK  288  A    between atoms: _710  and  _713
REMARK  289  A    between atoms: _713  and  _714
REMARK  290  A    between atoms: _714  and  _715
REMARK  291  A    between atoms: _715  and  _716
REMARK  292  A    between atoms: _725  and  _727
REMARK  293  A    between atoms: _727  and  _728
REMARK  294  A    between atoms: _727  and  _730
REMARK  295  A    between atoms: _730  and  _731
REMARK  296  A    between atoms: _734  and  _736
REMARK  297  A    between atoms: _736  and  _737
REMARK  298  A    between atoms: _736  and  _739
REMARK  299  A    between atoms: _739  and  _740
REMARK  300  A    between atoms: _745  and  _746
REMARK  301  A    between atoms: _748  and  _750
REMARK  302  A    between atoms: _750  and  _751
REMARK  303  A    between atoms: _750  and  _753
REMARK  304  A    between atoms: _753  and  _754
REMARK  305  A    between atoms: _757  and  _759
REMARK  306  A    between atoms: _759  and  _760
REMARK  307  A    between atoms: _759  and  _762
REMARK  308  A    between atoms: _762  and  _763
REMARK  309  A    between atoms: _766  and  _768
REMARK  310  A    between atoms: _768  and  _769
REMARK  311  A    between atoms: _768  and  _771
REMARK  312  A    between atoms: _771  and  _772
REMARK  313  A    between atoms: _773  and  _775
REMARK  314  A    between atoms: _775  and  _776
REMARK  315  A    between atoms: _775  and  _778
REMARK  316  A    between atoms: _781  and  _783
REMARK  317  A    between atoms: _783  and  _784
REMARK  318  A    between atoms: _783  and  _786
REMARK  319  A    between atoms: _786  and  _787
REMARK  320  A    between atoms: _787  and  _788
REMARK  321  A    between atoms: _791  and  _793
REMARK  322  A    between atoms: _793  and  _794
REMARK  323  A    between atoms: _793  and  _796
REMARK  324  A    between atoms: _796  and  _797
REMARK  325  A    between atoms: _807  and  _809
REMARK  326  A    between atoms: _809  and  _810
REMARK  327  A    between atoms: _809  and  _812
REMARK  328  A    between atoms: _812  and  _813
REMARK  329  A    between atoms: _816  and  _818
REMARK  330  A    between atoms: _818  and  _819
REMARK  331  A    between atoms: _818  and  _821
REMARK  332  A    between atoms: _821  and  _822
REMARK  333  A    between atoms: _822  and  _823
REMARK  334  A    between atoms: _823  and  _824
REMARK  335  A    between atoms: _833  and  _835
REMARK  336  A    between atoms: _835  and  _836
REMARK  337  A    between atoms: _835  and  _838
REMARK  338  A    between atoms: _838  and  _839
REMARK  339  A    between atoms: _844  and  _845
REMARK                            x       y       z     vdW  Elec       q    Type
REMARK                         _______ _______ _______ _____ _____    ______ ____
ROOT
ATOM      1  O   HOH     1      43.022  54.279  -0.479  0.00  0.00    +0.000 OA
ENDROOT
TORSDOF 0
REMARK  Name = ../refined-set-2016/1fzo/1fzo_pocket.pdb
REMARK  339 active torsions:
REMARK  status: ('A' for Active; 'I' for Inactive)
REMARK    1  A    between atoms: _1  and  _3
REMARK    2  A    between atoms: _3  and  _4
REMARK    3  A    between atoms: _3  and  _6
REMARK    4  A    between atoms: _6  and  _7
REMARK    5  A    between atoms: _10  and  _12
REMARK    6  A    between atoms: _12  and  _13
REMARK    7  A    between atoms: _12  and  _15
REMARK    8  A    between atoms: _15  and  _16
REMARK    9  A    between atoms: _16  and  _17
REMARK   10  A    between atoms: _17  and  _18
REMARK   11  A    between atoms: _27  and  _29
REMARK   12  A    between atoms: _29  and  _30
REMARK   13  A    between atoms: _29  and  _32
REMARK   14  A    between atoms: _32  and  _33
REMARK   15  A    between atoms: _38  and  _39
REMARK   16  A    between atoms: _41  and  _43
REMARK   17  A    between atoms: _43  and  _44
REMARK   18  A    between atoms: _43  and  _46
REMARK   19  A    between atoms: _46  and  _47
REMARK   20  A    between atoms: _53  and  _55
REMARK   21  A    between atoms: _55  and  _56
REMARK   22  A    between atoms: _55  and  _58
REMARK   23  A    between atoms: _61  and  _63
REMARK   24  A    between atoms: _63  and  _64
REMARK   25  A    between atoms: _63  and  _66
REMARK   26  A    between atoms: _66  and  _67
REMARK   27  A    between atoms: _70  and  _72
REMARK   28  A    between atoms: _72  and  _73
REMARK   29  A    between atoms: _72  and  _75
REMARK   30  A    between atoms: _75  and  _76
REMARK   31  A    between atoms: _82  and  _84
REMARK   32  A    between atoms: _84  and  _85
REMARK   33  A    between atoms: _84  and  _87
REMARK   34  A    between atoms: _87  and  _88
REMARK   35  A    between atoms: _91  and  _93
REMARK   36  A    between atoms: _93  and  _94
REMARK   37  A    between atoms: _93  and  _96
REMARK   38  A    between atoms: _96  and  _97
REMARK   39  A    between atoms: _99  and  _101
REMARK   40  A    between atoms: _101  and  _102
REMARK   41  A    between atoms: _101  and  _104
REMARK   42  A    between atoms: _107  and  _109
REMARK   43  A    between atoms: _109  and  _110
REMARK   44  A    between atoms: _112  and  _114
REMARK   45  A    between atoms: _114  and  _115
REMARK   46  A    between atoms: _114  and  _117
REMARK   47  A    between atoms: _120  and  _122
REMARK   48  A    between atoms: _122  and  _123
REMARK   49  A    between atoms: _122  and  _125
REMARK   50  A    between atoms: _125  and  _126
REMARK   51  A    between atoms: _132  and  _134
REMARK   52  A    between atoms: _134  and  _135
REMARK   53  A    between atoms: _134  and  _137
REMARK   54  A    between atoms: _140  and  _142
REMARK   55  A    between atoms: _142  and  _143
REMARK   56  A    between atoms: _142  and  _145
REMARK   57  A    between atoms: _145  and  _146
REMARK   58  A    between atoms: _151  and  _152
REMARK   59  A    between atoms: _154  and  _156
REMARK   60  A    between atoms: _156  and  _157
REMARK   61  A    between atoms: _156  and  _159
REMARK   62  A    between atoms: _159  and  _160
REMARK   63  A    between atoms: _160  and  _161
REMARK   64  A    between atoms: _163  and  _165
REMARK   65  A    between atoms: _165  and  _166
REMARK   66  A    between atoms: _165  and  _168
REMARK   67  A    between atoms: _168  and  _169
REMARK   68  A    between atoms: _169  and  _170
REMARK   69  A    between atoms: _173  and  _175
REMARK   70  A    between atoms: _175  and  _176
REMARK   71  A    between atoms: _175  and  _178
REMARK   72  A    between atoms: _178  and  _179
REMARK   73  A    between atoms: _179  and  _180
REMARK   74  A    between atoms: _183  and  _185
REMARK   75  A    between atoms: _185  and  _186
REMARK   76  A    between atoms: _185  and  _188
REMARK   77  A    between atoms: _188  and  _189
REMARK   78  A    between atoms: _194  and  _195
REMARK   79  A    between atoms: _197  and  _199
REMARK   80  A    between atoms: _199  and  _200
REMARK   81  A    between atoms: _199  and  _202
REMARK   82  A    between atoms: _202  and  _203
REMARK   83  A    between atoms: _213  and  _215
REMARK   84  A    between atoms: _215  and  _216
REMARK   85  A    between atoms: _215  and  _218
REMARK   86  A    between atoms: _218  and  _219
REMARK   87  A    between atoms: _219  and  _220
REMARK   88  A    between atoms: _223  and  _225
REMARK   89  A    between atoms: _225  and  _226
REMARK   90  A    between atoms: _225  and  _228
REMARK   91  A    between atoms: _228  and  _229
REMARK   92  A    between atoms: _229  and  _230
REMARK   93  A    between atoms: _230  and  _231
REMARK   94  A    between atoms: _240  and  _242
REMARK   95  A    between atoms: _242  and  _243
REMARK   96  A    between atoms: _242  and  _245
REMARK   97  A    between atoms: _245  and  _246
REMARK   98  A    between atoms: _246  and  _247
REMARK   99  A    between atoms: _250  and  _252
REMARK  100  A    between atoms: _252  and  _253
REMARK  101  A    between atoms: _252  and  _255
REMARK  102  A    between atoms: _255  and  _256
REMARK  103  A    between atoms: _259  and  _261
REMARK  104  A    between atoms: _261  and  _262
REMARK  105  A    between atoms: _261  and  _264
REMARK  106  A    between atoms: _264  and  _265
REMARK  107  A    between atoms: _265  and  _266
REMARK  108  A    between atoms: _271  and  _273
REMARK  109  A    between atoms: _273  and  _274
REMARK  110  A    between atoms: _273  and  _276
REMARK  111  A    between atoms: _276  and  _277
REMARK  112  A    between atoms: _277  and  _278
REMARK  113  A    between atoms: _278  and  _279
REMARK  114  A    between atoms: _279  and  _280
REMARK  115  A    between atoms: _284  and  _286
REMARK  116  A    between atoms: _286  and  _287
REMARK  117  A    between atoms: _290  and  _292
REMARK  118  A    between atoms: _292  and  _293
REMARK  119  A    between atoms: _295  and  _297
REMARK  120  A    between atoms: _297  and  _298
REMARK  121  A    between atoms: _297  and  _300
REMARK  122  A    between atoms: _300  and  _301
REMARK  123  A    between atoms: _306  and  _308
REMARK  124  A    between atoms: _308  and  _309
REMARK  125  A    between atoms: _308  and  _311
REMARK  126  A    between atoms: _311  and  _312
REMARK  127  A    between atoms: _312  and  _313
REMARK  128  A    between atoms: _316  and  _318
REMARK  129  A    between atoms: _318  and  _319
REMARK  130  A    between atoms: _318  and  _321
REMARK  131  A    between atoms: _321  and  _322
REMARK  132  A    between atoms: _322  and  _323
REMARK  133  A    between atoms: _328  and  _330
REMARK  134  A    between atoms: _330  and  _331
REMARK  135  A    between atoms: _330  and  _333
REMARK  136  A    between atoms: _333  and  _334
REMARK  137  A    between atoms: _336  and  _338
REMARK  138  A    between atoms: _338  and  _339
REMARK  139  A    between atoms: _338  and  _341
REMARK  140  A    between atoms: _341  and  _342
REMARK  141  A    between atoms: _348  and  _350
REMARK  142  A    between atoms: _350  and  _351
REMARK  143  A    between atoms: _350  and  _353
REMARK  144  A    between atoms: _356  and  _358
REMARK  145  A    between atoms: _358  and  _359
REMARK  146  A    between atoms: _358  and  _361
REMARK  147  A    between atoms: _361  and  _362
REMARK  148  A    between atoms: _365  and  _367
REMARK  149  A    between atoms: _367  and  _368
REMARK  150  A    between atoms: _367  and  _370
REMARK  151  A    between atoms: _370  and  _371
REMARK  152  A    between atoms: _374  and  _376
REMARK  153  A    between atoms: _376  and  _377
REMARK  154  A    between atoms: _376  and  _379
REMARK  155  A    between atoms: _379  and  _380
REMARK  156  A    between atoms: _383  and  _385
REMARK  157  A    between atoms: _385  and  _386
REMARK  158  A    between atoms: _385  and  _388
REMARK  159  A    between atoms: _388  and  _389
REMARK  160  A    between atoms: _392  and  _394
REMARK  161  A    between atoms: _394  and  _395
REMARK  162  A    between atoms: _394  and  _397
REMARK  163  A    between atoms: _397  and  _398
REMARK  164  A    between atoms: _403  and  _404
REMARK  165  A    between atoms: _406  and  _408
REMARK  166  A    between atoms: _408  and  _409
REMARK  167  A    between atoms: _408  and  _411
REMARK  168  A    between atoms: _411  and  _412
REMARK  169  A    between atoms: _417  and  _418
REMARK  170  A    between atoms: _420  and  _422
REMARK  171  A    between atoms: _422  and  _423
REMARK  172  A    between atoms: _422  and  _425
REMARK  173  A    between atoms: _425  and  _426
REMARK  174  A    between atoms: _429  and  _431
REMARK  175  A    between atoms: _431  and  _432
REMARK  176  A    between atoms: _431  and  _434
REMARK  177  A    between atoms: _434  and  _435
REMARK  178  A    between atoms: _435  and  _436
REMARK  179  A    between atoms: _441  and  _443
REMARK  180  A    between atoms: _443  and  _444
REMARK  181  A    between atoms: _443  and  _446
REMARK  182  A    between atoms: _449  and  _451
REMARK  183  A    between atoms: _451  and  _452
REMARK  184  A    between atoms: _451  and  _454
REMARK  185  A    between atoms: _454  and  _455
REMARK  186  A    between atoms: _458  and  _460
REMARK  187  A    between atoms: _460  and  _461
REMARK  188  A    between atoms: _460  and  _463
REMARK  189  A    between atoms: _463  and  _464
REMARK  190  A    between atoms: _466  and  _468
REMARK  191  A    between atoms: _468  and  _469
REMARK  192  A    between atoms: _471  and  _473
REMARK  193  A    between atoms: _473  and  _474
REMARK  194  A    between atoms: _473  and  _476
REMARK  195  A    between atoms: _476  and  _477
REMARK  196  A    between atoms: _477  and  _772
REMARK  197  A    between atoms: _478  and  _480
REMARK  198  A    between atoms: _480  and  _481
REMARK  199  A    between atoms: _480  and  _483
REMARK  200  A    between atoms: _483  and  _484
REMARK  201  A    between atoms: _489  and  _490
REMARK  202  A    between atoms: _492  and  _494
REMARK  203  A    between atoms: _494  and  _495
REMARK  204  A    between atoms: _494  and  _497
REMARK  205  A    between atoms: _497  and  _498
REMARK  206  A    between atoms: _498  and  _499
REMARK  207  A    between atoms: _504  and  _506
REMARK  208  A    between atoms: _506  and  _507
REMARK  209  A    between atoms: _506  and  _509
REMARK  210  A    between atoms: _509  and  _510
REMARK  211  A    between atoms: _510  and  _511
REMARK  212  A    between atoms: _516  and  _518
REMARK  213  A    between atoms: _518  and  _519
REMARK  214  A    between atoms: _518  and  _521
REMARK  215  A    between atoms: _521  and  _522
REMARK  216  A    between atoms: _527  and  _528
REMARK  217  A    between atoms: _530  and  _532
REMARK  218  A    between atoms: _532  and  _533
REMARK  219  A    between atoms: _536  and  _538
REMARK  220  A    between atoms: _538  and  _539
REMARK  221  A    between atoms: _538  and  _541
REMARK  222  A    between atoms: _541  and  _542
REMARK  223  A    between atoms: _547  and  _548
REMARK  224  A    between atoms: _550  and  _552
REMARK  225  A    between atoms: _552  and  _553
REMARK  226  A    between atoms: _552  and  _555
REMARK  227  A    between atoms: _555  and  _556
REMARK  228  A    between atoms: _561  and  _562
REMARK  229  A    between atoms: _564  and  _566
REMARK  230  A    between atoms: _566  and  _567
REMARK  231  A    between atoms: _566  and  _569
REMARK  232  A    between atoms: _569  and  _570
REMARK  233  A    between atoms: _573  and  _575
REMARK  234  A    between atoms: _575  and  _576
REMARK  235  A    between atoms: _575  and  _578
REMARK  236  A    between atoms: _578  and  _579
REMARK  237  A    between atoms: _589  and  _591
REMARK  238  A    between atoms: _591  and  _592
REMARK  239  A    between atoms: _595  and  _597
REMARK  240  A    between atoms: _597  and  _598
REMARK  241  A    between atoms: _601  and  _603
REMARK  242  A    between atoms: _603  and  _604
REMARK  243  A    between atoms: _603  and  _606
REMARK  244  A    between atoms: _606  and  _607
REMARK  245  A    between atoms: _610  and  _612
REMARK  246  A    between atoms: _612  and  _613
REMARK  247  A    between atoms: _612  and  _615
REMARK  248  A    between atoms: _615  and  _616
REMARK  249  A    between atoms: _619  and  _621
REMARK  250  A    between atoms: _621  and  _622
REMARK  251  A    between atoms: _621  and  _624
REMARK  252  A    between atoms: _624  and  _625
REMARK  253  A    between atoms: _628  and  _630
REMARK  254  A    between atoms: _630  and  _631
REMARK  255  A    between atoms: _630  and  _633
REMARK  256  A    between atoms: _633  and  _634
REMARK  257  A    between atoms: _634  and  _635
REMARK  258  A    between atoms: _635  and  _636
REMARK  259  A    between atoms: _636  and  _637
REMARK  260  A    between atoms: _641  and  _643
REMARK  261  A    between atoms: _643  and  _644
REMARK  262  A    between atoms: _643  and  _646
REMARK  263  A    between atoms: _646  and  _647
REMARK  264  A    between atoms: _652  and  _654
REMARK  265  A    between atoms: _654  and  _655
REMARK  266  A    between atoms: _654  and  _657
REMARK  267  A    between atoms: _657  and  _658
REMARK  268  A    between atoms: _658  and  _659
REMARK  269  A    between atoms: _659  and  _660
REMARK  270  A    between atoms: _660  and  _661
REMARK  271  A    between atoms: _665  and  _667
REMARK  272  A    between atoms: _667  and  _668
REMARK  273  A    between atoms: _667  and  _670
REMARK  274  A    between atoms: _670  and  _671
REMARK  275  A    between atoms: _681  and  _683
REMARK  276  A    between atoms: _683  and  _684
REMARK  277  A    between atoms: _687  and  _689
REMARK  278  A    between atoms: _689  and  _690
REMARK  279  A    between atoms: _692  and  _694
REMARK  280  A    between atoms: _694  and  _695
REMARK  281  A    between atoms: _694  and  _697
REMARK  282  A    between atoms: _697  and  _698
REMARK  283  A    between atoms: _698  and  _699
REMARK  284  A    between atoms: _702  and  _704
REMARK  285  A    between atoms: _704  and  _705
REMARK  286  A    between atoms: _708  and  _710
REMARK  287  A    between atoms: _710  and  _711
REMARK  288  A    between atoms: _710  and  _713
REMARK  289  A    between atoms: _713  and  _714
REMARK  290  A    between atoms: _714  and  _715
REMARK  291  A    between atoms: _715  and  _716
REMARK  292  A    between atoms: _725  and  _727
REMARK  293  A    between atoms: _727  and  _728
REMARK  294  A    between atoms: _727  and  _730
REMARK  295  A    between atoms: _730  and  _731
REMARK  296  A    between atoms: _734  and  _736
REMARK  297  A    between atoms: _736  and  _737
REMARK  298  A    between atoms: _736  and  _739
REMARK  299  A    between atoms: _739  and  _740
REMARK  300  A    between atoms: _745  and  _746
REMARK  301  A    between atoms: _748  and  _750
REMARK  302  A    between atoms: _750  and  _751
REMARK  303  A    between atoms: _750  and  _753
REMARK  304  A    between atoms: _753  and  _754
REMARK  305  A    between atoms: _757  and  _759
REMARK  306  A    between atoms: _759  and  _760
REMARK  307  A    between atoms: _759  and  _762
REMARK  308  A    between atoms: _762  and  _763
REMARK  309  A    between atoms: _766  and  _768
REMARK  310  A    between atoms: _768  and  _769
REMARK  311  A    between atoms: _768  and  _771
REMARK  312  A    between atoms: _771  and  _772
REMARK  313  A    between atoms: _773  and  _775
REMARK  314  A    between atoms: _775  and  _776
REMARK  315  A    between atoms: _775  and  _778
REMARK  316  A    between atoms: _781  and  _783
REMARK  317  A    between atoms: _783  and  _784
REMARK  318  A    between atoms: _783  and  _786
REMARK  319  A    between atoms: _786  and  _787
REMARK  320  A    between atoms: _787  and  _788
REMARK  321  A    between atoms: _791  and  _793
REMARK  322  A    between atoms: _793  and  _794
REMARK  323  A    between atoms: _793  and  _796
REMARK  324  A    between atoms: _796  and  _797
REMARK  325  A    between atoms: _807  and  _809
REMARK  326  A    between atoms: _809  and  _810
REMARK  327  A    between atoms: _809  and  _812
REMARK  328  A    between atoms: _812  and  _813
REMARK  329  A    between atoms: _816  and  _818
REMARK  330  A    between atoms: _818  and  _819
REMARK  331  A    between atoms: _818  and  _821
REMARK  332  A    between atoms: _821  and  _822
REMARK  333  A    between atoms: _822  and  _823
REMARK  334  A    between atoms: _823  and  _824
REMARK  335  A    between atoms: _833  and  _835
REMARK  336  A    between atoms: _835  and  _836
REMARK  337  A    between atoms: _835  and  _838
REMARK  338  A    between atoms: _838  and  _839
REMARK  339  A    between atoms: _844  and  _845
REMARK                            x       y       z     vdW  Elec       q    Type
REMARK                         _______ _______ _______ _____ _____    ______ ____
ROOT
ATOM      1  O   HOH     1      45.335  58.182  -7.048  0.00  0.00    +0.000 OA
ENDROOT
TORSDOF 0
REMARK  Name = ../refined-set-2016/1fzo/1fzo_pocket.pdb
REMARK  339 active torsions:
REMARK  status: ('A' for Active; 'I' for Inactive)
REMARK    1  A    between atoms: _1  and  _3
REMARK    2  A    between atoms: _3  and  _4
REMARK    3  A    between atoms: _3  and  _6
REMARK    4  A    between atoms: _6  and  _7
REMARK    5  A    between atoms: _10  and  _12
REMARK    6  A    between atoms: _12  and  _13
REMARK    7  A    between atoms: _12  and  _15
REMARK    8  A    between atoms: _15  and  _16
REMARK    9  A    between atoms: _16  and  _17
REMARK   10  A    between atoms: _17  and  _18
REMARK   11  A    between atoms: _27  and  _29
REMARK   12  A    between atoms: _29  and  _30
REMARK   13  A    between atoms: _29  and  _32
REMARK   14  A    between atoms: _32  and  _33
REMARK   15  A    between atoms: _38  and  _39
REMARK   16  A    between atoms: _41  and  _43
REMARK   17  A    between atoms: _43  and  _44
REMARK   18  A    between atoms: _43  and  _46
REMARK   19  A    between atoms: _46  and  _47
REMARK   20  A    between atoms: _53  and  _55
REMARK   21  A    between atoms: _55  and  _56
REMARK   22  A    between atoms: _55  and  _58
REMARK   23  A    between atoms: _61  and  _63
REMARK   24  A    between atoms: _63  and  _64
REMARK   25  A    between atoms: _63  and  _66
REMARK   26  A    between atoms: _66  and  _67
REMARK   27  A    between atoms: _70  and  _72
REMARK   28  A    between atoms: _72  and  _73
REMARK   29  A    between atoms: _72  and  _75
REMARK   30  A    between atoms: _75  and  _76
REMARK   31  A    between atoms: _82  and  _84
REMARK   32  A    between atoms: _84  and  _85
REMARK   33  A    between atoms: _84  and  _87
REMARK   34  A    between atoms: _87  and  _88
REMARK   35  A    between atoms: _91  and  _93
REMARK   36  A    between atoms: _93  and  _94
REMARK   37  A    between atoms: _93  and  _96
REMARK   38  A    between atoms: _96  and  _97
REMARK   39  A    between atoms: _99  and  _101
REMARK   40  A    between atoms: _101  and  _102
REMARK   41  A    between atoms: _101  and  _104
REMARK   42  A    between atoms: _107  and  _109
REMARK   43  A    between atoms: _109  and  _110
REMARK   44  A    between atoms: _112  and  _114
REMARK   45  A    between atoms: _114  and  _115
REMARK   46  A    between atoms: _114  and  _117
REMARK   47  A    between atoms: _120  and  _122
REMARK   48  A    between atoms: _122  and  _123
REMARK   49  A    between atoms: _122  and  _125
REMARK   50  A    between atoms: _125  and  _126
REMARK   51  A    between atoms: _132  and  _134
REMARK   52  A    between atoms: _134  and  _135
REMARK   53  A    between atoms: _134  and  _137
REMARK   54  A    between atoms: _140  and  _142
REMARK   55  A    between atoms: _142  and  _143
REMARK   56  A    between atoms: _142  and  _145
REMARK   57  A    between atoms: _145  and  _146
REMARK   58  A    between atoms: _151  and  _152
REMARK   59  A    between atoms: _154  and  _156
REMARK   60  A    between atoms: _156  and  _157
REMARK   61  A    between atoms: _156  and  _159
REMARK   62  A    between atoms: _159  and  _160
REMARK   63  A    between atoms: _160  and  _161
REMARK   64  A    between atoms: _163  and  _165
REMARK   65  A    between atoms: _165  and  _166
REMARK   66  A    between atoms: _165  and  _168
REMARK   67  A    between atoms: _168  and  _169
REMARK   68  A    between atoms: _169  and  _170
REMARK   69  A    between atoms: _173  and  _175
REMARK   70  A    between atoms: _175  and  _176
REMARK   71  A    between atoms: _175  and  _178
REMARK   72  A    between atoms: _178  and  _179
REMARK   73  A    between atoms: _179  and  _180
REMARK   74  A    between atoms: _183  and  _185
REMARK   75  A    between atoms: _185  and  _186
REMARK   76  A    between atoms: _185  and  _188
REMARK   77  A    between atoms: _188  and  _189
REMARK   78  A    between atoms: _194  and  _195
REMARK   79  A    between atoms: _197  and  _199
REMARK   80  A    between atoms: _199  and  _200
REMARK   81  A    between atoms: _199  and  _202
REMARK   82  A    between atoms: _202  and  _203
REMARK   83  A    between atoms: _213  and  _215
REMARK   84  A    between atoms: _215  and  _216
REMARK   85  A    between atoms: _215  and  _218
REMARK   86  A    between atoms: _218  and  _219
REMARK   87  A    between atoms: _219  and  _220
REMARK   88  A    between atoms: _223  and  _225
REMARK   89  A    between atoms: _225  and  _226
REMARK   90  A    between atoms: _225  and  _228
REMARK   91  A    between atoms: _228  and  _229
REMARK   92  A    between atoms: _229  and  _230
REMARK   93  A    between atoms: _230  and  _231
REMARK   94  A    between atoms: _240  and  _242
REMARK   95  A    between atoms: _242  and  _243
REMARK   96  A    between atoms: _242  and  _245
REMARK   97  A    between atoms: _245  and  _246
REMARK   98  A    between atoms: _246  and  _247
REMARK   99  A    between atoms: _250  and  _252
REMARK  100  A    between atoms: _252  and  _253
REMARK  101  A    between atoms: _252  and  _255
REMARK  102  A    between atoms: _255  and  _256
REMARK  103  A    between atoms: _259  and  _261
REMARK  104  A    between atoms: _261  and  _262
REMARK  105  A    between atoms: _261  and  _264
REMARK  106  A    between atoms: _264  and  _265
REMARK  107  A    between atoms: _265  and  _266
REMARK  108  A    between atoms: _271  and  _273
REMARK  109  A    between atoms: _273  and  _274
REMARK  110  A    between atoms: _273  and  _276
REMARK  111  A    between atoms: _276  and  _277
REMARK  112  A    between atoms: _277  and  _278
REMARK  113  A    between atoms: _278  and  _279
REMARK  114  A    between atoms: _279  and  _280
REMARK  115  A    between atoms: _284  and  _286
REMARK  116  A    between atoms: _286  and  _287
REMARK  117  A    between atoms: _290  and  _292
REMARK  118  A    between atoms: _292  and  _293
REMARK  119  A    between atoms: _295  and  _297
REMARK  120  A    between atoms: _297  and  _298
REMARK  121  A    between atoms: _297  and  _300
REMARK  122  A    between atoms: _300  and  _301
REMARK  123  A    between atoms: _306  and  _308
REMARK  124  A    between atoms: _308  and  _309
REMARK  125  A    between atoms: _308  and  _311
REMARK  126  A    between atoms: _311  and  _312
REMARK  127  A    between atoms: _312  and  _313
REMARK  128  A    between atoms: _316  and  _318
REMARK  129  A    between atoms: _318  and  _319
REMARK  130  A    between atoms: _318  and  _321
REMARK  131  A    between atoms: _321  and  _322
REMARK  132  A    between atoms: _322  and  _323
REMARK  133  A    between atoms: _328  and  _330
REMARK  134  A    between atoms: _330  and  _331
REMARK  135  A    between atoms: _330  and  _333
REMARK  136  A    between atoms: _333  and  _334
REMARK  137  A    between atoms: _336  and  _338
REMARK  138  A    between atoms: _338  and  _339
REMARK  139  A    between atoms: _338  and  _341
REMARK  140  A    between atoms: _341  and  _342
REMARK  141  A    between atoms: _348  and  _350
REMARK  142  A    between atoms: _350  and  _351
REMARK  143  A    between atoms: _350  and  _353
REMARK  144  A    between atoms: _356  and  _358
REMARK  145  A    between atoms: _358  and  _359
REMARK  146  A    between atoms: _358  and  _361
REMARK  147  A    between atoms: _361  and  _362
REMARK  148  A    between atoms: _365  and  _367
REMARK  149  A    between atoms: _367  and  _368
REMARK  150  A    between atoms: _367  and  _370
REMARK  151  A    between atoms: _370  and  _371
REMARK  152  A    between atoms: _374  and  _376
REMARK  153  A    between atoms: _376  and  _377
REMARK  154  A    between atoms: _376  and  _379
REMARK  155  A    between atoms: _379  and  _380
REMARK  156  A    between atoms: _383  and  _385
REMARK  157  A    between atoms: _385  and  _386
REMARK  158  A    between atoms: _385  and  _388
REMARK  159  A    between atoms: _388  and  _389
REMARK  160  A    between atoms: _392  and  _394
REMARK  161  A    between atoms: _394  and  _395
REMARK  162  A    between atoms: _394  and  _397
REMARK  163  A    between atoms: _397  and  _398
REMARK  164  A    between atoms: _403  and  _404
REMARK  165  A    between atoms: _406  and  _408
REMARK  166  A    between atoms: _408  and  _409
REMARK  167  A    between atoms: _408  and  _411
REMARK  168  A    between atoms: _411  and  _412
REMARK  169  A    between atoms: _417  and  _418
REMARK  170  A    between atoms: _420  and  _422
REMARK  171  A    between atoms: _422  and  _423
REMARK  172  A    between atoms: _422  and  _425
REMARK  173  A    between atoms: _425  and  _426
REMARK  174  A    between atoms: _429  and  _431
REMARK  175  A    between atoms: _431  and  _432
REMARK  176  A    between atoms: _431  and  _434
REMARK  177  A    between atoms: _434  and  _435
REMARK  178  A    between atoms: _435  and  _436
REMARK  179  A    between atoms: _441  and  _443
REMARK  180  A    between atoms: _443  and  _444
REMARK  181  A    between atoms: _443  and  _446
REMARK  182  A    between atoms: _449  and  _451
REMARK  183  A    between atoms: _451  and  _452
REMARK  184  A    between atoms: _451  and  _454
REMARK  185  A    between atoms: _454  and  _455
REMARK  186  A    between atoms: _458  and  _460
REMARK  187  A    between atoms: _460  and  _461
REMARK  188  A    between atoms: _460  and  _463
REMARK  189  A    between atoms: _463  and  _464
REMARK  190  A    between atoms: _466  and  _468
REMARK  191  A    between atoms: _468  and  _469
REMARK  192  A    between atoms: _471  and  _473
REMARK  193  A    between atoms: _473  and  _474
REMARK  194  A    between atoms: _473  and  _476
REMARK  195  A    between atoms: _476  and  _477
REMARK  196  A    between atoms: _477  and  _772
REMARK  197  A    between atoms: _478  and  _480
REMARK  198  A    between atoms: _480  and  _481
REMARK  199  A    between atoms: _480  and  _483
REMARK  200  A    between atoms: _483  and  _484
REMARK  201  A    between atoms: _489  and  _490
REMARK  202  A    between atoms: _492  and  _494
REMARK  203  A    between atoms: _494  and  _495
REMARK  204  A    between atoms: _494  and  _497
REMARK  205  A    between atoms: _497  and  _498
REMARK  206  A    between atoms: _498  and  _499
REMARK  207  A    between atoms: _504  and  _506
REMARK  208  A    between atoms: _506  and  _507
REMARK  209  A    between atoms: _506  and  _509
REMARK  210  A    between atoms: _509  and  _510
REMARK  211  A    between atoms: _510  and  _511
REMARK  212  A    between atoms: _516  and  _518
REMARK  213  A    between atoms: _518  and  _519
REMARK  214  A    between atoms: _518  and  _521
REMARK  215  A    between atoms: _521  and  _522
REMARK  216  A    between atoms: _527  and  _528
REMARK  217  A    between atoms: _530  and  _532
REMARK  218  A    between atoms: _532  and  _533
REMARK  219  A    between atoms: _536  and  _538
REMARK  220  A    between atoms: _538  and  _539
REMARK  221  A    between atoms: _538  and  _541
REMARK  222  A    between atoms: _541  and  _542
REMARK  223  A    between atoms: _547  and  _548
REMARK  224  A    between atoms: _550  and  _552
REMARK  225  A    between atoms: _552  and  _553
REMARK  226  A    between atoms: _552  and  _555
REMARK  227  A    between atoms: _555  and  _556
REMARK  228  A    between atoms: _561  and  _562
REMARK  229  A    between atoms: _564  and  _566
REMARK  230  A    between atoms: _566  and  _567
REMARK  231  A    between atoms: _566  and  _569
REMARK  232  A    between atoms: _569  and  _570
REMARK  233  A    between atoms: _573  and  _575
REMARK  234  A    between atoms: _575  and  _576
REMARK  235  A    between atoms: _575  and  _578
REMARK  236  A    between atoms: _578  and  _579
REMARK  237  A    between atoms: _589  and  _591
REMARK  238  A    between atoms: _591  and  _592
REMARK  239  A    between atoms: _595  and  _597
REMARK  240  A    between atoms: _597  and  _598
REMARK  241  A    between atoms: _601  and  _603
REMARK  242  A    between atoms: _603  and  _604
REMARK  243  A    between atoms: _603  and  _606
REMARK  244  A    between atoms: _606  and  _607
REMARK  245  A    between atoms: _610  and  _612
REMARK  246  A    between atoms: _612  and  _613
REMARK  247  A    between atoms: _612  and  _615
REMARK  248  A    between atoms: _615  and  _616
REMARK  249  A    between atoms: _619  and  _621
REMARK  250  A    between atoms: _621  and  _622
REMARK  251  A    between atoms: _621  and  _624
REMARK  252  A    between atoms: _624  and  _625
REMARK  253  A    between atoms: _628  and  _630
REMARK  254  A    between atoms: _630  and  _631
REMARK  255  A    between atoms: _630  and  _633
REMARK  256  A    between atoms: _633  and  _634
REMARK  257  A    between atoms: _634  and  _635
REMARK  258  A    between atoms: _635  and  _636
REMARK  259  A    between atoms: _636  and  _637
REMARK  260  A    between atoms: _641  and  _643
REMARK  261  A    between atoms: _643  and  _644
REMARK  262  A    between atoms: _643  and  _646
REMARK  263  A    between atoms: _646  and  _647
REMARK  264  A    between atoms: _652  and  _654
REMARK  265  A    between atoms: _654  and  _655
REMARK  266  A    between atoms: _654  and  _657
REMARK  267  A    between atoms: _657  and  _658
REMARK  268  A    between atoms: _658  and  _659
REMARK  269  A    between atoms: _659  and  _660
REMARK  270  A    between atoms: _660  and  _661
REMARK  271  A    between atoms: _665  and  _667
REMARK  272  A    between atoms: _667  and  _668
REMARK  273  A    between atoms: _667  and  _670
REMARK  274  A    between atoms: _670  and  _671
REMARK  275  A    between atoms: _681  and  _683
REMARK  276  A    between atoms: _683  and  _684
REMARK  277  A    between atoms: _687  and  _689
REMARK  278  A    between atoms: _689  and  _690
REMARK  279  A    between atoms: _692  and  _694
REMARK  280  A    between atoms: _694  and  _695
REMARK  281  A    between atoms: _694  and  _697
REMARK  282  A    between atoms: _697  and  _698
REMARK  283  A    between atoms: _698  and  _699
REMARK  284  A    between atoms: _702  and  _704
REMARK  285  A    between atoms: _704  and  _705
REMARK  286  A    between atoms: _708  and  _710
REMARK  287  A    between atoms: _710  and  _711
REMARK  288  A    between atoms: _710  and  _713
REMARK  289  A    between atoms: _713  and  _714
REMARK  290  A    between atoms: _714  and  _715
REMARK  291  A    between atoms: _715  and  _716
REMARK  292  A    between atoms: _725  and  _727
REMARK  293  A    between atoms: _727  and  _728
REMARK  294  A    between atoms: _727  and  _730
REMARK  295  A    between atoms: _730  and  _731
REMARK  296  A    between atoms: _734  and  _736
REMARK  297  A    between atoms: _736  and  _737
REMARK  298  A    between atoms: _736  and  _739
REMARK  299  A    between atoms: _739  and  _740
REMARK  300  A    between atoms: _745  and  _746
REMARK  301  A    between atoms: _748  and  _750
REMARK  302  A    between atoms: _750  and  _751
REMARK  303  A    between atoms: _750  and  _753
REMARK  304  A    between atoms: _753  and  _754
REMARK  305  A    between atoms: _757  and  _759
REMARK  306  A    between atoms: _759  and  _760
REMARK  307  A    between atoms: _759  and  _762
REMARK  308  A    between atoms: _762  and  _763
REMARK  309  A    between atoms: _766  and  _768
REMARK  310  A    between atoms: _768  and  _769
REMARK  311  A    between atoms: _768  and  _771
REMARK  312  A    between atoms: _771  and  _772
REMARK  313  A    between atoms: _773  and  _775
REMARK  314  A    between atoms: _775  and  _776
REMARK  315  A    between atoms: _775  and  _778
REMARK  316  A    between atoms: _781  and  _783
REMARK  317  A    between atoms: _783  and  _784
REMARK  318  A    between atoms: _783  and  _786
REMARK  319  A    between atoms: _786  and  _787
REMARK  320  A    between atoms: _787  and  _788
REMARK  321  A    between atoms: _791  and  _793
REMARK  322  A    between atoms: _793  and  _794
REMARK  323  A    between atoms: _793  and  _796
REMARK  324  A    between atoms: _796  and  _797
REMARK  325  A    between atoms: _807  and  _809
REMARK  326  A    between atoms: _809  and  _810
REMARK  327  A    between atoms: _809  and  _812
REMARK  328  A    between atoms: _812  and  _813
REMARK  329  A    between atoms: _816  and  _818
REMARK  330  A    between atoms: _818  and  _819
REMARK  331  A    between atoms: _818  and  _821
REMARK  332  A    between atoms: _821  and  _822
REMARK  333  A    between atoms: _822  and  _823
REMARK  334  A    between atoms: _823  and  _824
REMARK  335  A    between atoms: _833  and  _835
REMARK  336  A    between atoms: _835  and  _836
REMARK  337  A    between atoms: _835  and  _838
REMARK  338  A    between atoms: _838  and  _839
REMARK  339  A    between atoms: _844  and  _845
REMARK                            x       y       z     vdW  Elec       q    Type
REMARK                         _______ _______ _______ _____ _____    ______ ____
ROOT
ATOM      1  O   HOH     1      34.356  57.761 -13.888  0.00  0.00    +0.000 OA
ENDROOT
TORSDOF 0
REMARK  Name = ../refined-set-2016/1fzo/1fzo_pocket.pdb
REMARK  339 active torsions:
REMARK  status: ('A' for Active; 'I' for Inactive)
REMARK    1  A    between atoms: _1  and  _3
REMARK    2  A    between atoms: _3  and  _4
REMARK    3  A    between atoms: _3  and  _6
REMARK    4  A    between atoms: _6  and  _7
REMARK    5  A    between atoms: _10  and  _12
REMARK    6  A    between atoms: _12  and  _13
REMARK    7  A    between atoms: _12  and  _15
REMARK    8  A    between atoms: _15  and  _16
REMARK    9  A    between atoms: _16  and  _17
REMARK   10  A    between atoms: _17  and  _18
REMARK   11  A    between atoms: _27  and  _29
REMARK   12  A    between atoms: _29  and  _30
REMARK   13  A    between atoms: _29  and  _32
REMARK   14  A    between atoms: _32  and  _33
REMARK   15  A    between atoms: _38  and  _39
REMARK   16  A    between atoms: _41  and  _43
REMARK   17  A    between atoms: _43  and  _44
REMARK   18  A    between atoms: _43  and  _46
REMARK   19  A    between atoms: _46  and  _47
REMARK   20  A    between atoms: _53  and  _55
REMARK   21  A    between atoms: _55  and  _56
REMARK   22  A    between atoms: _55  and  _58
REMARK   23  A    between atoms: _61  and  _63
REMARK   24  A    between atoms: _63  and  _64
REMARK   25  A    between atoms: _63  and  _66
REMARK   26  A    between atoms: _66  and  _67
REMARK   27  A    between atoms: _70  and  _72
REMARK   28  A    between atoms: _72  and  _73
REMARK   29  A    between atoms: _72  and  _75
REMARK   30  A    between atoms: _75  and  _76
REMARK   31  A    between atoms: _82  and  _84
REMARK   32  A    between atoms: _84  and  _85
REMARK   33  A    between atoms: _84  and  _87
REMARK   34  A    between atoms: _87  and  _88
REMARK   35  A    between atoms: _91  and  _93
REMARK   36  A    between atoms: _93  and  _94
REMARK   37  A    between atoms: _93  and  _96
REMARK   38  A    between atoms: _96  and  _97
REMARK   39  A    between atoms: _99  and  _101
REMARK   40  A    between atoms: _101  and  _102
REMARK   41  A    between atoms: _101  and  _104
REMARK   42  A    between atoms: _107  and  _109
REMARK   43  A    between atoms: _109  and  _110
REMARK   44  A    between atoms: _112  and  _114
REMARK   45  A    between atoms: _114  and  _115
REMARK   46  A    between atoms: _114  and  _117
REMARK   47  A    between atoms: _120  and  _122
REMARK   48  A    between atoms: _122  and  _123
REMARK   49  A    between atoms: _122  and  _125
REMARK   50  A    between atoms: _125  and  _126
REMARK   51  A    between atoms: _132  and  _134
REMARK   52  A    between atoms: _134  and  _135
REMARK   53  A    between atoms: _134  and  _137
REMARK   54  A    between atoms: _140  and  _142
REMARK   55  A    between atoms: _142  and  _143
REMARK   56  A    between atoms: _142  and  _145
REMARK   57  A    between atoms: _145  and  _146
REMARK   58  A    between atoms: _151  and  _152
REMARK   59  A    between atoms: _154  and  _156
REMARK   60  A    between atoms: _156  and  _157
REMARK   61  A    between atoms: _156  and  _159
REMARK   62  A    between atoms: _159  and  _160
REMARK   63  A    between atoms: _160  and  _161
REMARK   64  A    between atoms: _163  and  _165
REMARK   65  A    between atoms: _165  and  _166
REMARK   66  A    between atoms: _165  and  _168
REMARK   67  A    between atoms: _168  and  _169
REMARK   68  A    between atoms: _169  and  _170
REMARK   69  A    between atoms: _173  and  _175
REMARK   70  A    between atoms: _175  and  _176
REMARK   71  A    between atoms: _175  and  _178
REMARK   72  A    between atoms: _178  and  _179
REMARK   73  A    between atoms: _179  and  _180
REMARK   74  A    between atoms: _183  and  _185
REMARK   75  A    between atoms: _185  and  _186
REMARK   76  A    between atoms: _185  and  _188
REMARK   77  A    between atoms: _188  and  _189
REMARK   78  A    between atoms: _194  and  _195
REMARK   79  A    between atoms: _197  and  _199
REMARK   80  A    between atoms: _199  and  _200
REMARK   81  A    between atoms: _199  and  _202
REMARK   82  A    between atoms: _202  and  _203
REMARK   83  A    between atoms: _213  and  _215
REMARK   84  A    between atoms: _215  and  _216
REMARK   85  A    between atoms: _215  and  _218
REMARK   86  A    between atoms: _218  and  _219
REMARK   87  A    between atoms: _219  and  _220
REMARK   88  A    between atoms: _223  and  _225
REMARK   89  A    between atoms: _225  and  _226
REMARK   90  A    between atoms: _225  and  _228
REMARK   91  A    between atoms: _228  and  _229
REMARK   92  A    between atoms: _229  and  _230
REMARK   93  A    between atoms: _230  and  _231
REMARK   94  A    between atoms: _240  and  _242
REMARK   95  A    between atoms: _242  and  _243
REMARK   96  A    between atoms: _242  and  _245
REMARK   97  A    between atoms: _245  and  _246
REMARK   98  A    between atoms: _246  and  _247
REMARK   99  A    between atoms: _250  and  _252
REMARK  100  A    between atoms: _252  and  _253
REMARK  101  A    between atoms: _252  and  _255
REMARK  102  A    between atoms: _255  and  _256
REMARK  103  A    between atoms: _259  and  _261
REMARK  104  A    between atoms: _261  and  _262
REMARK  105  A    between atoms: _261  and  _264
REMARK  106  A    between atoms: _264  and  _265
REMARK  107  A    between atoms: _265  and  _266
REMARK  108  A    between atoms: _271  and  _273
REMARK  109  A    between atoms: _273  and  _274
REMARK  110  A    between atoms: _273  and  _276
REMARK  111  A    between atoms: _276  and  _277
REMARK  112  A    between atoms: _277  and  _278
REMARK  113  A    between atoms: _278  and  _279
REMARK  114  A    between atoms: _279  and  _280
REMARK  115  A    between atoms: _284  and  _286
REMARK  116  A    between atoms: _286  and  _287
REMARK  117  A    between atoms: _290  and  _292
REMARK  118  A    between atoms: _292  and  _293
REMARK  119  A    between atoms: _295  and  _297
REMARK  120  A    between atoms: _297  and  _298
REMARK  121  A    between atoms: _297  and  _300
REMARK  122  A    between atoms: _300  and  _301
REMARK  123  A    between atoms: _306  and  _308
REMARK  124  A    between atoms: _308  and  _309
REMARK  125  A    between atoms: _308  and  _311
REMARK  126  A    between atoms: _311  and  _312
REMARK  127  A    between atoms: _312  and  _313
REMARK  128  A    between atoms: _316  and  _318
REMARK  129  A    between atoms: _318  and  _319
REMARK  130  A    between atoms: _318  and  _321
REMARK  131  A    between atoms: _321  and  _322
REMARK  132  A    between atoms: _322  and  _323
REMARK  133  A    between atoms: _328  and  _330
REMARK  134  A    between atoms: _330  and  _331
REMARK  135  A    between atoms: _330  and  _333
REMARK  136  A    between atoms: _333  and  _334
REMARK  137  A    between atoms: _336  and  _338
REMARK  138  A    between atoms: _338  and  _339
REMARK  139  A    between atoms: _338  and  _341
REMARK  140  A    between atoms: _341  and  _342
REMARK  141  A    between atoms: _348  and  _350
REMARK  142  A    between atoms: _350  and  _351
REMARK  143  A    between atoms: _350  and  _353
REMARK  144  A    between atoms: _356  and  _358
REMARK  145  A    between atoms: _358  and  _359
REMARK  146  A    between atoms: _358  and  _361
REMARK  147  A    between atoms: _361  and  _362
REMARK  148  A    between atoms: _365  and  _367
REMARK  149  A    between atoms: _367  and  _368
REMARK  150  A    between atoms: _367  and  _370
REMARK  151  A    between atoms: _370  and  _371
REMARK  152  A    between atoms: _374  and  _376
REMARK  153  A    between atoms: _376  and  _377
REMARK  154  A    between atoms: _376  and  _379
REMARK  155  A    between atoms: _379  and  _380
REMARK  156  A    between atoms: _383  and  _385
REMARK  157  A    between atoms: _385  and  _386
REMARK  158  A    between atoms: _385  and  _388
REMARK  159  A    between atoms: _388  and  _389
REMARK  160  A    between atoms: _392  and  _394
REMARK  161  A    between atoms: _394  and  _395
REMARK  162  A    between atoms: _394  and  _397
REMARK  163  A    between atoms: _397  and  _398
REMARK  164  A    between atoms: _403  and  _404
REMARK  165  A    between atoms: _406  and  _408
REMARK  166  A    between atoms: _408  and  _409
REMARK  167  A    between atoms: _408  and  _411
REMARK  168  A    between atoms: _411  and  _412
REMARK  169  A    between atoms: _417  and  _418
REMARK  170  A    between atoms: _420  and  _422
REMARK  171  A    between atoms: _422  and  _423
REMARK  172  A    between atoms: _422  and  _425
REMARK  173  A    between atoms: _425  and  _426
REMARK  174  A    between atoms: _429  and  _431
REMARK  175  A    between atoms: _431  and  _432
REMARK  176  A    between atoms: _431  and  _434
REMARK  177  A    between atoms: _434  and  _435
REMARK  178  A    between atoms: _435  and  _436
REMARK  179  A    between atoms: _441  and  _443
REMARK  180  A    between atoms: _443  and  _444
REMARK  181  A    between atoms: _443  and  _446
REMARK  182  A    between atoms: _449  and  _451
REMARK  183  A    between atoms: _451  and  _452
REMARK  184  A    between atoms: _451  and  _454
REMARK  185  A    between atoms: _454  and  _455
REMARK  186  A    between atoms: _458  and  _460
REMARK  187  A    between atoms: _460  and  _461
REMARK  188  A    between atoms: _460  and  _463
REMARK  189  A    between atoms: _463  and  _464
REMARK  190  A    between atoms: _466  and  _468
REMARK  191  A    between atoms: _468  and  _469
REMARK  192  A    between atoms: _471  and  _473
REMARK  193  A    between atoms: _473  and  _474
REMARK  194  A    between atoms: _473  and  _476
REMARK  195  A    between atoms: _476  and  _477
REMARK  196  A    between atoms: _477  and  _772
REMARK  197  A    between atoms: _478  and  _480
REMARK  198  A    between atoms: _480  and  _481
REMARK  199  A    between atoms: _480  and  _483
REMARK  200  A    between atoms: _483  and  _484
REMARK  201  A    between atoms: _489  and  _490
REMARK  202  A    between atoms: _492  and  _494
REMARK  203  A    between atoms: _494  and  _495
REMARK  204  A    between atoms: _494  and  _497
REMARK  205  A    between atoms: _497  and  _498
REMARK  206  A    between atoms: _498  and  _499
REMARK  207  A    between atoms: _504  and  _506
REMARK  208  A    between atoms: _506  and  _507
REMARK  209  A    between atoms: _506  and  _509
REMARK  210  A    between atoms: _509  and  _510
REMARK  211  A    between atoms: _510  and  _511
REMARK  212  A    between atoms: _516  and  _518
REMARK  213  A    between atoms: _518  and  _519
REMARK  214  A    between atoms: _518  and  _521
REMARK  215  A    between atoms: _521  and  _522
REMARK  216  A    between atoms: _527  and  _528
REMARK  217  A    between atoms: _530  and  _532
REMARK  218  A    between atoms: _532  and  _533
REMARK  219  A    between atoms: _536  and  _538
REMARK  220  A    between atoms: _538  and  _539
REMARK  221  A    between atoms: _538  and  _541
REMARK  222  A    between atoms: _541  and  _542
REMARK  223  A    between atoms: _547  and  _548
REMARK  224  A    between atoms: _550  and  _552
REMARK  225  A    between atoms: _552  and  _553
REMARK  226  A    between atoms: _552  and  _555
REMARK  227  A    between atoms: _555  and  _556
REMARK  228  A    between atoms: _561  and  _562
REMARK  229  A    between atoms: _564  and  _566
REMARK  230  A    between atoms: _566  and  _567
REMARK  231  A    between atoms: _566  and  _569
REMARK  232  A    between atoms: _569  and  _570
REMARK  233  A    between atoms: _573  and  _575
REMARK  234  A    between atoms: _575  and  _576
REMARK  235  A    between atoms: _575  and  _578
REMARK  236  A    between atoms: _578  and  _579
REMARK  237  A    between atoms: _589  and  _591
REMARK  238  A    between atoms: _591  and  _592
REMARK  239  A    between atoms: _595  and  _597
REMARK  240  A    between atoms: _597  and  _598
REMARK  241  A    between atoms: _601  and  _603
REMARK  242  A    between atoms: _603  and  _604
REMARK  243  A    between atoms: _603  and  _606
REMARK  244  A    between atoms: _606  and  _607
REMARK  245  A    between atoms: _610  and  _612
REMARK  246  A    between atoms: _612  and  _613
REMARK  247  A    between atoms: _612  and  _615
REMARK  248  A    between atoms: _615  and  _616
REMARK  249  A    between atoms: _619  and  _621
REMARK  250  A    between atoms: _621  and  _622
REMARK  251  A    between atoms: _621  and  _624
REMARK  252  A    between atoms: _624  and  _625
REMARK  253  A    between atoms: _628  and  _630
REMARK  254  A    between atoms: _630  and  _631
REMARK  255  A    between atoms: _630  and  _633
REMARK  256  A    between atoms: _633  and  _634
REMARK  257  A    between atoms: _634  and  _635
REMARK  258  A    between atoms: _635  and  _636
REMARK  259  A    between atoms: _636  and  _637
REMARK  260  A    between atoms: _641  and  _643
REMARK  261  A    between atoms: _643  and  _644
REMARK  262  A    between atoms: _643  and  _646
REMARK  263  A    between atoms: _646  and  _647
REMARK  264  A    between atoms: _652  and  _654
REMARK  265  A    between atoms: _654  and  _655
REMARK  266  A    between atoms: _654  and  _657
REMARK  267  A    between atoms: _657  and  _658
REMARK  268  A    between atoms: _658  and  _659
REMARK  269  A    between atoms: _659  and  _660
REMARK  270  A    between atoms: _660  and  _661
REMARK  271  A    between atoms: _665  and  _667
REMARK  272  A    between atoms: _667  and  _668
REMARK  273  A    between atoms: _667  and  _670
REMARK  274  A    between atoms: _670  and  _671
REMARK  275  A    between atoms: _681  and  _683
REMARK  276  A    between atoms: _683  and  _684
REMARK  277  A    between atoms: _687  and  _689
REMARK  278  A    between atoms: _689  and  _690
REMARK  279  A    between atoms: _692  and  _694
REMARK  280  A    between atoms: _694  and  _695
REMARK  281  A    between atoms: _694  and  _697
REMARK  282  A    between atoms: _697  and  _698
REMARK  283  A    between atoms: _698  and  _699
REMARK  284  A    between atoms: _702  and  _704
REMARK  285  A    between atoms: _704  and  _705
REMARK  286  A    between atoms: _708  and  _710
REMARK  287  A    between atoms: _710  and  _711
REMARK  288  A    between atoms: _710  and  _713
REMARK  289  A    between atoms: _713  and  _714
REMARK  290  A    between atoms: _714  and  _715
REMARK  291  A    between atoms: _715  and  _716
REMARK  292  A    between atoms: _725  and  _727
REMARK  293  A    between atoms: _727  and  _728
REMARK  294  A    between atoms: _727  and  _730
REMARK  295  A    between atoms: _730  and  _731
REMARK  296  A    between atoms: _734  and  _736
REMARK  297  A    between atoms: _736  and  _737
REMARK  298  A    between atoms: _736  and  _739
REMARK  299  A    between atoms: _739  and  _740
REMARK  300  A    between atoms: _745  and  _746
REMARK  301  A    between atoms: _748  and  _750
REMARK  302  A    between atoms: _750  and  _751
REMARK  303  A    between atoms: _750  and  _753
REMARK  304  A    between atoms: _753  and  _754
REMARK  305  A    between atoms: _757  and  _759
REMARK  306  A    between atoms: _759  and  _760
REMARK  307  A    between atoms: _759  and  _762
REMARK  308  A    between atoms: _762  and  _763
REMARK  309  A    between atoms: _766  and  _768
REMARK  310  A    between atoms: _768  and  _769
REMARK  311  A    between atoms: _768  and  _771
REMARK  312  A    between atoms: _771  and  _772
REMARK  313  A    between atoms: _773  and  _775
REMARK  314  A    between atoms: _775  and  _776
REMARK  315  A    between atoms: _775  and  _778
REMARK  316  A    between atoms: _781  and  _783
REMARK  317  A    between atoms: _783  and  _784
REMARK  318  A    between atoms: _783  and  _786
REMARK  319  A    between atoms: _786  and  _787
REMARK  320  A    between atoms: _787  and  _788
REMARK  321  A    between atoms: _791  and  _793
REMARK  322  A    between atoms: _793  and  _794
REMARK  323  A    between atoms: _793  and  _796
REMARK  324  A    between atoms: _796  and  _797
REMARK  325  A    between atoms: _807  and  _809
REMARK  326  A    between atoms: _809  and  _810
REMARK  327  A    between atoms: _809  and  _812
REMARK  328  A    between atoms: _812  and  _813
REMARK  329  A    between atoms: _816  and  _818
REMARK  330  A    between atoms: _818  and  _819
REMARK  331  A    between atoms: _818  and  _821
REMARK  332  A    between atoms: _821  and  _822
REMARK  333  A    between atoms: _822  and  _823
REMARK  334  A    between atoms: _823  and  _824
REMARK  335  A    between atoms: _833  and  _835
REMARK  336  A    between atoms: _835  and  _836
REMARK  337  A    between atoms: _835  and  _838
REMARK  338  A    between atoms: _838  and  _839
REMARK  339  A    between atoms: _844  and  _845
REMARK                            x       y       z     vdW  Elec       q    Type
REMARK                         _______ _______ _______ _____ _____    ______ ____
ROOT
ATOM      1  O   HOH     1      47.958  61.862   0.128  0.00  0.00    +0.000 OA
ENDROOT
TORSDOF 0
REMARK  Name = ../refined-set-2016/1fzo/1fzo_pocket.pdb
REMARK  339 active torsions:
REMARK  status: ('A' for Active; 'I' for Inactive)
REMARK    1  A    between atoms: _1  and  _3
REMARK    2  A    between atoms: _3  and  _4
REMARK    3  A    between atoms: _3  and  _6
REMARK    4  A    between atoms: _6  and  _7
REMARK    5  A    between atoms: _10  and  _12
REMARK    6  A    between atoms: _12  and  _13
REMARK    7  A    between atoms: _12  and  _15
REMARK    8  A    between atoms: _15  and  _16
REMARK    9  A    between atoms: _16  and  _17
REMARK   10  A    between atoms: _17  and  _18
REMARK   11  A    between atoms: _27  and  _29
REMARK   12  A    between atoms: _29  and  _30
REMARK   13  A    between atoms: _29  and  _32
REMARK   14  A    between atoms: _32  and  _33
REMARK   15  A    between atoms: _38  and  _39
REMARK   16  A    between atoms: _41  and  _43
REMARK   17  A    between atoms: _43  and  _44
REMARK   18  A    between atoms: _43  and  _46
REMARK   19  A    between atoms: _46  and  _47
REMARK   20  A    between atoms: _53  and  _55
REMARK   21  A    between atoms: _55  and  _56
REMARK   22  A    between atoms: _55  and  _58
REMARK   23  A    between atoms: _61  and  _63
REMARK   24  A    between atoms: _63  and  _64
REMARK   25  A    between atoms: _63  and  _66
REMARK   26  A    between atoms: _66  and  _67
REMARK   27  A    between atoms: _70  and  _72
REMARK   28  A    between atoms: _72  and  _73
REMARK   29  A    between atoms: _72  and  _75
REMARK   30  A    between atoms: _75  and  _76
REMARK   31  A    between atoms: _82  and  _84
REMARK   32  A    between atoms: _84  and  _85
REMARK   33  A    between atoms: _84  and  _87
REMARK   34  A    between atoms: _87  and  _88
REMARK   35  A    between atoms: _91  and  _93
REMARK   36  A    between atoms: _93  and  _94
REMARK   37  A    between atoms: _93  and  _96
REMARK   38  A    between atoms: _96  and  _97
REMARK   39  A    between atoms: _99  and  _101
REMARK   40  A    between atoms: _101  and  _102
REMARK   41  A    between atoms: _101  and  _104
REMARK   42  A    between atoms: _107  and  _109
REMARK   43  A    between atoms: _109  and  _110
REMARK   44  A    between atoms: _112  and  _114
REMARK   45  A    between atoms: _114  and  _115
REMARK   46  A    between atoms: _114  and  _117
REMARK   47  A    between atoms: _120  and  _122
REMARK   48  A    between atoms: _122  and  _123
REMARK   49  A    between atoms: _122  and  _125
REMARK   50  A    between atoms: _125  and  _126
REMARK   51  A    between atoms: _132  and  _134
REMARK   52  A    between atoms: _134  and  _135
REMARK   53  A    between atoms: _134  and  _137
REMARK   54  A    between atoms: _140  and  _142
REMARK   55  A    between atoms: _142  and  _143
REMARK   56  A    between atoms: _142  and  _145
REMARK   57  A    between atoms: _145  and  _146
REMARK   58  A    between atoms: _151  and  _152
REMARK   59  A    between atoms: _154  and  _156
REMARK   60  A    between atoms: _156  and  _157
REMARK   61  A    between atoms: _156  and  _159
REMARK   62  A    between atoms: _159  and  _160
REMARK   63  A    between atoms: _160  and  _161
REMARK   64  A    between atoms: _163  and  _165
REMARK   65  A    between atoms: _165  and  _166
REMARK   66  A    between atoms: _165  and  _168
REMARK   67  A    between atoms: _168  and  _169
REMARK   68  A    between atoms: _169  and  _170
REMARK   69  A    between atoms: _173  and  _175
REMARK   70  A    between atoms: _175  and  _176
REMARK   71  A    between atoms: _175  and  _178
REMARK   72  A    between atoms: _178  and  _179
REMARK   73  A    between atoms: _179  and  _180
REMARK   74  A    between atoms: _183  and  _185
REMARK   75  A    between atoms: _185  and  _186
REMARK   76  A    between atoms: _185  and  _188
REMARK   77  A    between atoms: _188  and  _189
REMARK   78  A    between atoms: _194  and  _195
REMARK   79  A    between atoms: _197  and  _199
REMARK   80  A    between atoms: _199  and  _200
REMARK   81  A    between atoms: _199  and  _202
REMARK   82  A    between atoms: _202  and  _203
REMARK   83  A    between atoms: _213  and  _215
REMARK   84  A    between atoms: _215  and  _216
REMARK   85  A    between atoms: _215  and  _218
REMARK   86  A    between atoms: _218  and  _219
REMARK   87  A    between atoms: _219  and  _220
REMARK   88  A    between atoms: _223  and  _225
REMARK   89  A    between atoms: _225  and  _226
REMARK   90  A    between atoms: _225  and  _228
REMARK   91  A    between atoms: _228  and  _229
REMARK   92  A    between atoms: _229  and  _230
REMARK   93  A    between atoms: _230  and  _231
REMARK   94  A    between atoms: _240  and  _242
REMARK   95  A    between atoms: _242  and  _243
REMARK   96  A    between atoms: _242  and  _245
REMARK   97  A    between atoms: _245  and  _246
REMARK   98  A    between atoms: _246  and  _247
REMARK   99  A    between atoms: _250  and  _252
REMARK  100  A    between atoms: _252  and  _253
REMARK  101  A    between atoms: _252  and  _255
REMARK  102  A    between atoms: _255  and  _256
REMARK  103  A    between atoms: _259  and  _261
REMARK  104  A    between atoms: _261  and  _262
REMARK  105  A    between atoms: _261  and  _264
REMARK  106  A    between atoms: _264  and  _265
REMARK  107  A    between atoms: _265  and  _266
REMARK  108  A    between atoms: _271  and  _273
REMARK  109  A    between atoms: _273  and  _274
REMARK  110  A    between atoms: _273  and  _276
REMARK  111  A    between atoms: _276  and  _277
REMARK  112  A    between atoms: _277  and  _278
REMARK  113  A    between atoms: _278  and  _279
REMARK  114  A    between atoms: _279  and  _280
REMARK  115  A    between atoms: _284  and  _286
REMARK  116  A    between atoms: _286  and  _287
REMARK  117  A    between atoms: _290  and  _292
REMARK  118  A    between atoms: _292  and  _293
REMARK  119  A    between atoms: _295  and  _297
REMARK  120  A    between atoms: _297  and  _298
REMARK  121  A    between atoms: _297  and  _300
REMARK  122  A    between atoms: _300  and  _301
REMARK  123  A    between atoms: _306  and  _308
REMARK  124  A    between atoms: _308  and  _309
REMARK  125  A    between atoms: _308  and  _311
REMARK  126  A    between atoms: _311  and  _312
REMARK  127  A    between atoms: _312  and  _313
REMARK  128  A    between atoms: _316  and  _318
REMARK  129  A    between atoms: _318  and  _319
REMARK  130  A    between atoms: _318  and  _321
REMARK  131  A    between atoms: _321  and  _322
REMARK  132  A    between atoms: _322  and  _323
REMARK  133  A    between atoms: _328  and  _330
REMARK  134  A    between atoms: _330  and  _331
REMARK  135  A    between atoms: _330  and  _333
REMARK  136  A    between atoms: _333  and  _334
REMARK  137  A    between atoms: _336  and  _338
REMARK  138  A    between atoms: _338  and  _339
REMARK  139  A    between atoms: _338  and  _341
REMARK  140  A    between atoms: _341  and  _342
REMARK  141  A    between atoms: _348  and  _350
REMARK  142  A    between atoms: _350  and  _351
REMARK  143  A    between atoms: _350  and  _353
REMARK  144  A    between atoms: _356  and  _358
REMARK  145  A    between atoms: _358  and  _359
REMARK  146  A    between atoms: _358  and  _361
REMARK  147  A    between atoms: _361  and  _362
REMARK  148  A    between atoms: _365  and  _367
REMARK  149  A    between atoms: _367  and  _368
REMARK  150  A    between atoms: _367  and  _370
REMARK  151  A    between atoms: _370  and  _371
REMARK  152  A    between atoms: _374  and  _376
REMARK  153  A    between atoms: _376  and  _377
REMARK  154  A    between atoms: _376  and  _379
REMARK  155  A    between atoms: _379  and  _380
REMARK  156  A    between atoms: _383  and  _385
REMARK  157  A    between atoms: _385  and  _386
REMARK  158  A    between atoms: _385  and  _388
REMARK  159  A    between atoms: _388  and  _389
REMARK  160  A    between atoms: _392  and  _394
REMARK  161  A    between atoms: _394  and  _395
REMARK  162  A    between atoms: _394  and  _397
REMARK  163  A    between atoms: _397  and  _398
REMARK  164  A    between atoms: _403  and  _404
REMARK  165  A    between atoms: _406  and  _408
REMARK  166  A    between atoms: _408  and  _409
REMARK  167  A    between atoms: _408  and  _411
REMARK  168  A    between atoms: _411  and  _412
REMARK  169  A    between atoms: _417  and  _418
REMARK  170  A    between atoms: _420  and  _422
REMARK  171  A    between atoms: _422  and  _423
REMARK  172  A    between atoms: _422  and  _425
REMARK  173  A    between atoms: _425  and  _426
REMARK  174  A    between atoms: _429  and  _431
REMARK  175  A    between atoms: _431  and  _432
REMARK  176  A    between atoms: _431  and  _434
REMARK  177  A    between atoms: _434  and  _435
REMARK  178  A    between atoms: _435  and  _436
REMARK  179  A    between atoms: _441  and  _443
REMARK  180  A    between atoms: _443  and  _444
REMARK  181  A    between atoms: _443  and  _446
REMARK  182  A    between atoms: _449  and  _451
REMARK  183  A    between atoms: _451  and  _452
REMARK  184  A    between atoms: _451  and  _454
REMARK  185  A    between atoms: _454  and  _455
REMARK  186  A    between atoms: _458  and  _460
REMARK  187  A    between atoms: _460  and  _461
REMARK  188  A    between atoms: _460  and  _463
REMARK  189  A    between atoms: _463  and  _464
REMARK  190  A    between atoms: _466  and  _468
REMARK  191  A    between atoms: _468  and  _469
REMARK  192  A    between atoms: _471  and  _473
REMARK  193  A    between atoms: _473  and  _474
REMARK  194  A    between atoms: _473  and  _476
REMARK  195  A    between atoms: _476  and  _477
REMARK  196  A    between atoms: _477  and  _772
REMARK  197  A    between atoms: _478  and  _480
REMARK  198  A    between atoms: _480  and  _481
REMARK  199  A    between atoms: _480  and  _483
REMARK  200  A    between atoms: _483  and  _484
REMARK  201  A    between atoms: _489  and  _490
REMARK  202  A    between atoms: _492  and  _494
REMARK  203  A    between atoms: _494  and  _495
REMARK  204  A    between atoms: _494  and  _497
REMARK  205  A    between atoms: _497  and  _498
REMARK  206  A    between atoms: _498  and  _499
REMARK  207  A    between atoms: _504  and  _506
REMARK  208  A    between atoms: _506  and  _507
REMARK  209  A    between atoms: _506  and  _509
REMARK  210  A    between atoms: _509  and  _510
REMARK  211  A    between atoms: _510  and  _511
REMARK  212  A    between atoms: _516  and  _518
REMARK  213  A    between atoms: _518  and  _519
REMARK  214  A    between atoms: _518  and  _521
REMARK  215  A    between atoms: _521  and  _522
REMARK  216  A    between atoms: _527  and  _528
REMARK  217  A    between atoms: _530  and  _532
REMARK  218  A    between atoms: _532  and  _533
REMARK  219  A    between atoms: _536  and  _538
REMARK  220  A    between atoms: _538  and  _539
REMARK  221  A    between atoms: _538  and  _541
REMARK  222  A    between atoms: _541  and  _542
REMARK  223  A    between atoms: _547  and  _548
REMARK  224  A    between atoms: _550  and  _552
REMARK  225  A    between atoms: _552  and  _553
REMARK  226  A    between atoms: _552  and  _555
REMARK  227  A    between atoms: _555  and  _556
REMARK  228  A    between atoms: _561  and  _562
REMARK  229  A    between atoms: _564  and  _566
REMARK  230  A    between atoms: _566  and  _567
REMARK  231  A    between atoms: _566  and  _569
REMARK  232  A    between atoms: _569  and  _570
REMARK  233  A    between atoms: _573  and  _575
REMARK  234  A    between atoms: _575  and  _576
REMARK  235  A    between atoms: _575  and  _578
REMARK  236  A    between atoms: _578  and  _579
REMARK  237  A    between atoms: _589  and  _591
REMARK  238  A    between atoms: _591  and  _592
REMARK  239  A    between atoms: _595  and  _597
REMARK  240  A    between atoms: _597  and  _598
REMARK  241  A    between atoms: _601  and  _603
REMARK  242  A    between atoms: _603  and  _604
REMARK  243  A    between atoms: _603  and  _606
REMARK  244  A    between atoms: _606  and  _607
REMARK  245  A    between atoms: _610  and  _612
REMARK  246  A    between atoms: _612  and  _613
REMARK  247  A    between atoms: _612  and  _615
REMARK  248  A    between atoms: _615  and  _616
REMARK  249  A    between atoms: _619  and  _621
REMARK  250  A    between atoms: _621  and  _622
REMARK  251  A    between atoms: _621  and  _624
REMARK  252  A    between atoms: _624  and  _625
REMARK  253  A    between atoms: _628  and  _630
REMARK  254  A    between atoms: _630  and  _631
REMARK  255  A    between atoms: _630  and  _633
REMARK  256  A    between atoms: _633  and  _634
REMARK  257  A    between atoms: _634  and  _635
REMARK  258  A    between atoms: _635  and  _636
REMARK  259  A    between atoms: _636  and  _637
REMARK  260  A    between atoms: _641  and  _643
REMARK  261  A    between atoms: _643  and  _644
REMARK  262  A    between atoms: _643  and  _646
REMARK  263  A    between atoms: _646  and  _647
REMARK  264  A    between atoms: _652  and  _654
REMARK  265  A    between atoms: _654  and  _655
REMARK  266  A    between atoms: _654  and  _657
REMARK  267  A    between atoms: _657  and  _658
REMARK  268  A    between atoms: _658  and  _659
REMARK  269  A    between atoms: _659  and  _660
REMARK  270  A    between atoms: _660  and  _661
REMARK  271  A    between atoms: _665  and  _667
REMARK  272  A    between atoms: _667  and  _668
REMARK  273  A    between atoms: _667  and  _670
REMARK  274  A    between atoms: _670  and  _671
REMARK  275  A    between atoms: _681  and  _683
REMARK  276  A    between atoms: _683  and  _684
REMARK  277  A    between atoms: _687  and  _689
REMARK  278  A    between atoms: _689  and  _690
REMARK  279  A    between atoms: _692  and  _694
REMARK  280  A    between atoms: _694  and  _695
REMARK  281  A    between atoms: _694  and  _697
REMARK  282  A    between atoms: _697  and  _698
REMARK  283  A    between atoms: _698  and  _699
REMARK  284  A    between atoms: _702  and  _704
REMARK  285  A    between atoms: _704  and  _705
REMARK  286  A    between atoms: _708  and  _710
REMARK  287  A    between atoms: _710  and  _711
REMARK  288  A    between atoms: _710  and  _713
REMARK  289  A    between atoms: _713  and  _714
REMARK  290  A    between atoms: _714  and  _715
REMARK  291  A    between atoms: _715  and  _716
REMARK  292  A    between atoms: _725  and  _727
REMARK  293  A    between atoms: _727  and  _728
REMARK  294  A    between atoms: _727  and  _730
REMARK  295  A    between atoms: _730  and  _731
REMARK  296  A    between atoms: _734  and  _736
REMARK  297  A    between atoms: _736  and  _737
REMARK  298  A    between atoms: _736  and  _739
REMARK  299  A    between atoms: _739  and  _740
REMARK  300  A    between atoms: _745  and  _746
REMARK  301  A    between atoms: _748  and  _750
REMARK  302  A    between atoms: _750  and  _751
REMARK  303  A    between atoms: _750  and  _753
REMARK  304  A    between atoms: _753  and  _754
REMARK  305  A    between atoms: _757  and  _759
REMARK  306  A    between atoms: _759  and  _760
REMARK  307  A    between atoms: _759  and  _762
REMARK  308  A    between atoms: _762  and  _763
REMARK  309  A    between atoms: _766  and  _768
REMARK  310  A    between atoms: _768  and  _769
REMARK  311  A    between atoms: _768  and  _771
REMARK  312  A    between atoms: _771  and  _772
REMARK  313  A    between atoms: _773  and  _775
REMARK  314  A    between atoms: _775  and  _776
REMARK  315  A    between atoms: _775  and  _778
REMARK  316  A    between atoms: _781  and  _783
REMARK  317  A    between atoms: _783  and  _784
REMARK  318  A    between atoms: _783  and  _786
REMARK  319  A    between atoms: _786  and  _787
REMARK  320  A    between atoms: _787  and  _788
REMARK  321  A    between atoms: _791  and  _793
REMARK  322  A    between atoms: _793  and  _794
REMARK  323  A    between atoms: _793  and  _796
REMARK  324  A    between atoms: _796  and  _797
REMARK  325  A    between atoms: _807  and  _809
REMARK  326  A    between atoms: _809  and  _810
REMARK  327  A    between atoms: _809  and  _812
REMARK  328  A    between atoms: _812  and  _813
REMARK  329  A    between atoms: _816  and  _818
REMARK  330  A    between atoms: _818  and  _819
REMARK  331  A    between atoms: _818  and  _821
REMARK  332  A    between atoms: _821  and  _822
REMARK  333  A    between atoms: _822  and  _823
REMARK  334  A    between atoms: _823  and  _824
REMARK  335  A    between atoms: _833  and  _835
REMARK  336  A    between atoms: _835  and  _836
REMARK  337  A    between atoms: _835  and  _838
REMARK  338  A    between atoms: _838  and  _839
REMARK  339  A    between atoms: _844  and  _845
REMARK                            x       y       z     vdW  Elec       q    Type
REMARK                         _______ _______ _______ _____ _____    ______ ____
ROOT
ATOM      1  O   HOH     1      38.616  62.252 -13.896  0.00  0.00    +0.000 OA
ENDROOT
TORSDOF 0
REMARK  Name = ../refined-set-2016/1fzo/1fzo_pocket.pdb
REMARK  339 active torsions:
REMARK  status: ('A' for Active; 'I' for Inactive)
REMARK    1  A    between atoms: _1  and  _3
REMARK    2  A    between atoms: _3  and  _4
REMARK    3  A    between atoms: _3  and  _6
REMARK    4  A    between atoms: _6  and  _7
REMARK    5  A    between atoms: _10  and  _12
REMARK    6  A    between atoms: _12  and  _13
REMARK    7  A    between atoms: _12  and  _15
REMARK    8  A    between atoms: _15  and  _16
REMARK    9  A    between atoms: _16  and  _17
REMARK   10  A    between atoms: _17  and  _18
REMARK   11  A    between atoms: _27  and  _29
REMARK   12  A    between atoms: _29  and  _30
REMARK   13  A    between atoms: _29  and  _32
REMARK   14  A    between atoms: _32  and  _33
REMARK   15  A    between atoms: _38  and  _39
REMARK   16  A    between atoms: _41  and  _43
REMARK   17  A    between atoms: _43  and  _44
REMARK   18  A    between atoms: _43  and  _46
REMARK   19  A    between atoms: _46  and  _47
REMARK   20  A    between atoms: _53  and  _55
REMARK   21  A    between atoms: _55  and  _56
REMARK   22  A    between atoms: _55  and  _58
REMARK   23  A    between atoms: _61  and  _63
REMARK   24  A    between atoms: _63  and  _64
REMARK   25  A    between atoms: _63  and  _66
REMARK   26  A    between atoms: _66  and  _67
REMARK   27  A    between atoms: _70  and  _72
REMARK   28  A    between atoms: _72  and  _73
REMARK   29  A    between atoms: _72  and  _75
REMARK   30  A    between atoms: _75  and  _76
REMARK   31  A    between atoms: _82  and  _84
REMARK   32  A    between atoms: _84  and  _85
REMARK   33  A    between atoms: _84  and  _87
REMARK   34  A    between atoms: _87  and  _88
REMARK   35  A    between atoms: _91  and  _93
REMARK   36  A    between atoms: _93  and  _94
REMARK   37  A    between atoms: _93  and  _96
REMARK   38  A    between atoms: _96  and  _97
REMARK   39  A    between atoms: _99  and  _101
REMARK   40  A    between atoms: _101  and  _102
REMARK   41  A    between atoms: _101  and  _104
REMARK   42  A    between atoms: _107  and  _109
REMARK   43  A    between atoms: _109  and  _110
REMARK   44  A    between atoms: _112  and  _114
REMARK   45  A    between atoms: _114  and  _115
REMARK   46  A    between atoms: _114  and  _117
REMARK   47  A    between atoms: _120  and  _122
REMARK   48  A    between atoms: _122  and  _123
REMARK   49  A    between atoms: _122  and  _125
REMARK   50  A    between atoms: _125  and  _126
REMARK   51  A    between atoms: _132  and  _134
REMARK   52  A    between atoms: _134  and  _135
REMARK   53  A    between atoms: _134  and  _137
REMARK   54  A    between atoms: _140  and  _142
REMARK   55  A    between atoms: _142  and  _143
REMARK   56  A    between atoms: _142  and  _145
REMARK   57  A    between atoms: _145  and  _146
REMARK   58  A    between atoms: _151  and  _152
REMARK   59  A    between atoms: _154  and  _156
REMARK   60  A    between atoms: _156  and  _157
REMARK   61  A    between atoms: _156  and  _159
REMARK   62  A    between atoms: _159  and  _160
REMARK   63  A    between atoms: _160  and  _161
REMARK   64  A    between atoms: _163  and  _165
REMARK   65  A    between atoms: _165  and  _166
REMARK   66  A    between atoms: _165  and  _168
REMARK   67  A    between atoms: _168  and  _169
REMARK   68  A    between atoms: _169  and  _170
REMARK   69  A    between atoms: _173  and  _175
REMARK   70  A    between atoms: _175  and  _176
REMARK   71  A    between atoms: _175  and  _178
REMARK   72  A    between atoms: _178  and  _179
REMARK   73  A    between atoms: _179  and  _180
REMARK   74  A    between atoms: _183  and  _185
REMARK   75  A    between atoms: _185  and  _186
REMARK   76  A    between atoms: _185  and  _188
REMARK   77  A    between atoms: _188  and  _189
REMARK   78  A    between atoms: _194  and  _195
REMARK   79  A    between atoms: _197  and  _199
REMARK   80  A    between atoms: _199  and  _200
REMARK   81  A    between atoms: _199  and  _202
REMARK   82  A    between atoms: _202  and  _203
REMARK   83  A    between atoms: _213  and  _215
REMARK   84  A    between atoms: _215  and  _216
REMARK   85  A    between atoms: _215  and  _218
REMARK   86  A    between atoms: _218  and  _219
REMARK   87  A    between atoms: _219  and  _220
REMARK   88  A    between atoms: _223  and  _225
REMARK   89  A    between atoms: _225  and  _226
REMARK   90  A    between atoms: _225  and  _228
REMARK   91  A    between atoms: _228  and  _229
REMARK   92  A    between atoms: _229  and  _230
REMARK   93  A    between atoms: _230  and  _231
REMARK   94  A    between atoms: _240  and  _242
REMARK   95  A    between atoms: _242  and  _243
REMARK   96  A    between atoms: _242  and  _245
REMARK   97  A    between atoms: _245  and  _246
REMARK   98  A    between atoms: _246  and  _247
REMARK   99  A    between atoms: _250  and  _252
REMARK  100  A    between atoms: _252  and  _253
REMARK  101  A    between atoms: _252  and  _255
REMARK  102  A    between atoms: _255  and  _256
REMARK  103  A    between atoms: _259  and  _261
REMARK  104  A    between atoms: _261  and  _262
REMARK  105  A    between atoms: _261  and  _264
REMARK  106  A    between atoms: _264  and  _265
REMARK  107  A    between atoms: _265  and  _266
REMARK  108  A    between atoms: _271  and  _273
REMARK  109  A    between atoms: _273  and  _274
REMARK  110  A    between atoms: _273  and  _276
REMARK  111  A    between atoms: _276  and  _277
REMARK  112  A    between atoms: _277  and  _278
REMARK  113  A    between atoms: _278  and  _279
REMARK  114  A    between atoms: _279  and  _280
REMARK  115  A    between atoms: _284  and  _286
REMARK  116  A    between atoms: _286  and  _287
REMARK  117  A    between atoms: _290  and  _292
REMARK  118  A    between atoms: _292  and  _293
REMARK  119  A    between atoms: _295  and  _297
REMARK  120  A    between atoms: _297  and  _298
REMARK  121  A    between atoms: _297  and  _300
REMARK  122  A    between atoms: _300  and  _301
REMARK  123  A    between atoms: _306  and  _308
REMARK  124  A    between atoms: _308  and  _309
REMARK  125  A    between atoms: _308  and  _311
REMARK  126  A    between atoms: _311  and  _312
REMARK  127  A    between atoms: _312  and  _313
REMARK  128  A    between atoms: _316  and  _318
REMARK  129  A    between atoms: _318  and  _319
REMARK  130  A    between atoms: _318  and  _321
REMARK  131  A    between atoms: _321  and  _322
REMARK  132  A    between atoms: _322  and  _323
REMARK  133  A    between atoms: _328  and  _330
REMARK  134  A    between atoms: _330  and  _331
REMARK  135  A    between atoms: _330  and  _333
REMARK  136  A    between atoms: _333  and  _334
REMARK  137  A    between atoms: _336  and  _338
REMARK  138  A    between atoms: _338  and  _339
REMARK  139  A    between atoms: _338  and  _341
REMARK  140  A    between atoms: _341  and  _342
REMARK  141  A    between atoms: _348  and  _350
REMARK  142  A    between atoms: _350  and  _351
REMARK  143  A    between atoms: _350  and  _353
REMARK  144  A    between atoms: _356  and  _358
REMARK  145  A    between atoms: _358  and  _359
REMARK  146  A    between atoms: _358  and  _361
REMARK  147  A    between atoms: _361  and  _362
REMARK  148  A    between atoms: _365  and  _367
REMARK  149  A    between atoms: _367  and  _368
REMARK  150  A    between atoms: _367  and  _370
REMARK  151  A    between atoms: _370  and  _371
REMARK  152  A    between atoms: _374  and  _376
REMARK  153  A    between atoms: _376  and  _377
REMARK  154  A    between atoms: _376  and  _379
REMARK  155  A    between atoms: _379  and  _380
REMARK  156  A    between atoms: _383  and  _385
REMARK  157  A    between atoms: _385  and  _386
REMARK  158  A    between atoms: _385  and  _388
REMARK  159  A    between atoms: _388  and  _389
REMARK  160  A    between atoms: _392  and  _394
REMARK  161  A    between atoms: _394  and  _395
REMARK  162  A    between atoms: _394  and  _397
REMARK  163  A    between atoms: _397  and  _398
REMARK  164  A    between atoms: _403  and  _404
REMARK  165  A    between atoms: _406  and  _408
REMARK  166  A    between atoms: _408  and  _409
REMARK  167  A    between atoms: _408  and  _411
REMARK  168  A    between atoms: _411  and  _412
REMARK  169  A    between atoms: _417  and  _418
REMARK  170  A    between atoms: _420  and  _422
REMARK  171  A    between atoms: _422  and  _423
REMARK  172  A    between atoms: _422  and  _425
REMARK  173  A    between atoms: _425  and  _426
REMARK  174  A    between atoms: _429  and  _431
REMARK  175  A    between atoms: _431  and  _432
REMARK  176  A    between atoms: _431  and  _434
REMARK  177  A    between atoms: _434  and  _435
REMARK  178  A    between atoms: _435  and  _436
REMARK  179  A    between atoms: _441  and  _443
REMARK  180  A    between atoms: _443  and  _444
REMARK  181  A    between atoms: _443  and  _446
REMARK  182  A    between atoms: _449  and  _451
REMARK  183  A    between atoms: _451  and  _452
REMARK  184  A    between atoms: _451  and  _454
REMARK  185  A    between atoms: _454  and  _455
REMARK  186  A    between atoms: _458  and  _460
REMARK  187  A    between atoms: _460  and  _461
REMARK  188  A    between atoms: _460  and  _463
REMARK  189  A    between atoms: _463  and  _464
REMARK  190  A    between atoms: _466  and  _468
REMARK  191  A    between atoms: _468  and  _469
REMARK  192  A    between atoms: _471  and  _473
REMARK  193  A    between atoms: _473  and  _474
REMARK  194  A    between atoms: _473  and  _476
REMARK  195  A    between atoms: _476  and  _477
REMARK  196  A    between atoms: _477  and  _772
REMARK  197  A    between atoms: _478  and  _480
REMARK  198  A    between atoms: _480  and  _481
REMARK  199  A    between atoms: _480  and  _483
REMARK  200  A    between atoms: _483  and  _484
REMARK  201  A    between atoms: _489  and  _490
REMARK  202  A    between atoms: _492  and  _494
REMARK  203  A    between atoms: _494  and  _495
REMARK  204  A    between atoms: _494  and  _497
REMARK  205  A    between atoms: _497  and  _498
REMARK  206  A    between atoms: _498  and  _499
REMARK  207  A    between atoms: _504  and  _506
REMARK  208  A    between atoms: _506  and  _507
REMARK  209  A    between atoms: _506  and  _509
REMARK  210  A    between atoms: _509  and  _510
REMARK  211  A    between atoms: _510  and  _511
REMARK  212  A    between atoms: _516  and  _518
REMARK  213  A    between atoms: _518  and  _519
REMARK  214  A    between atoms: _518  and  _521
REMARK  215  A    between atoms: _521  and  _522
REMARK  216  A    between atoms: _527  and  _528
REMARK  217  A    between atoms: _530  and  _532
REMARK  218  A    between atoms: _532  and  _533
REMARK  219  A    between atoms: _536  and  _538
REMARK  220  A    between atoms: _538  and  _539
REMARK  221  A    between atoms: _538  and  _541
REMARK  222  A    between atoms: _541  and  _542
REMARK  223  A    between atoms: _547  and  _548
REMARK  224  A    between atoms: _550  and  _552
REMARK  225  A    between atoms: _552  and  _553
REMARK  226  A    between atoms: _552  and  _555
REMARK  227  A    between atoms: _555  and  _556
REMARK  228  A    between atoms: _561  and  _562
REMARK  229  A    between atoms: _564  and  _566
REMARK  230  A    between atoms: _566  and  _567
REMARK  231  A    between atoms: _566  and  _569
REMARK  232  A    between atoms: _569  and  _570
REMARK  233  A    between atoms: _573  and  _575
REMARK  234  A    between atoms: _575  and  _576
REMARK  235  A    between atoms: _575  and  _578
REMARK  236  A    between atoms: _578  and  _579
REMARK  237  A    between atoms: _589  and  _591
REMARK  238  A    between atoms: _591  and  _592
REMARK  239  A    between atoms: _595  and  _597
REMARK  240  A    between atoms: _597  and  _598
REMARK  241  A    between atoms: _601  and  _603
REMARK  242  A    between atoms: _603  and  _604
REMARK  243  A    between atoms: _603  and  _606
REMARK  244  A    between atoms: _606  and  _607
REMARK  245  A    between atoms: _610  and  _612
REMARK  246  A    between atoms: _612  and  _613
REMARK  247  A    between atoms: _612  and  _615
REMARK  248  A    between atoms: _615  and  _616
REMARK  249  A    between atoms: _619  and  _621
REMARK  250  A    between atoms: _621  and  _622
REMARK  251  A    between atoms: _621  and  _624
REMARK  252  A    between atoms: _624  and  _625
REMARK  253  A    between atoms: _628  and  _630
REMARK  254  A    between atoms: _630  and  _631
REMARK  255  A    between atoms: _630  and  _633
REMARK  256  A    between atoms: _633  and  _634
REMARK  257  A    between atoms: _634  and  _635
REMARK  258  A    between atoms: _635  and  _636
REMARK  259  A    between atoms: _636  and  _637
REMARK  260  A    between atoms: _641  and  _643
REMARK  261  A    between atoms: _643  and  _644
REMARK  262  A    between atoms: _643  and  _646
REMARK  263  A    between atoms: _646  and  _647
REMARK  264  A    between atoms: _652  and  _654
REMARK  265  A    between atoms: _654  and  _655
REMARK  266  A    between atoms: _654  and  _657
REMARK  267  A    between atoms: _657  and  _658
REMARK  268  A    between atoms: _658  and  _659
REMARK  269  A    between atoms: _659  and  _660
REMARK  270  A    between atoms: _660  and  _661
REMARK  271  A    between atoms: _665  and  _667
REMARK  272  A    between atoms: _667  and  _668
REMARK  273  A    between atoms: _667  and  _670
REMARK  274  A    between atoms: _670  and  _671
REMARK  275  A    between atoms: _681  and  _683
REMARK  276  A    between atoms: _683  and  _684
REMARK  277  A    between atoms: _687  and  _689
REMARK  278  A    between atoms: _689  and  _690
REMARK  279  A    between atoms: _692  and  _694
REMARK  280  A    between atoms: _694  and  _695
REMARK  281  A    between atoms: _694  and  _697
REMARK  282  A    between atoms: _697  and  _698
REMARK  283  A    between atoms: _698  and  _699
REMARK  284  A    between atoms: _702  and  _704
REMARK  285  A    between atoms: _704  and  _705
REMARK  286  A    between atoms: _708  and  _710
REMARK  287  A    between atoms: _710  and  _711
REMARK  288  A    between atoms: _710  and  _713
REMARK  289  A    between atoms: _713  and  _714
REMARK  290  A    between atoms: _714  and  _715
REMARK  291  A    between atoms: _715  and  _716
REMARK  292  A    between atoms: _725  and  _727
REMARK  293  A    between atoms: _727  and  _728
REMARK  294  A    between atoms: _727  and  _730
REMARK  295  A    between atoms: _730  and  _731
REMARK  296  A    between atoms: _734  and  _736
REMARK  297  A    between atoms: _736  and  _737
REMARK  298  A    between atoms: _736  and  _739
REMARK  299  A    between atoms: _739  and  _740
REMARK  300  A    between atoms: _745  and  _746
REMARK  301  A    between atoms: _748  and  _750
REMARK  302  A    between atoms: _750  and  _751
REMARK  303  A    between atoms: _750  and  _753
REMARK  304  A    between atoms: _753  and  _754
REMARK  305  A    between atoms: _757  and  _759
REMARK  306  A    between atoms: _759  and  _760
REMARK  307  A    between atoms: _759  and  _762
REMARK  308  A    between atoms: _762  and  _763
REMARK  309  A    between atoms: _766  and  _768
REMARK  310  A    between atoms: _768  and  _769
REMARK  311  A    between atoms: _768  and  _771
REMARK  312  A    between atoms: _771  and  _772
REMARK  313  A    between atoms: _773  and  _775
REMARK  314  A    between atoms: _775  and  _776
REMARK  315  A    between atoms: _775  and  _778
REMARK  316  A    between atoms: _781  and  _783
REMARK  317  A    between atoms: _783  and  _784
REMARK  318  A    between atoms: _783  and  _786
REMARK  319  A    between atoms: _786  and  _787
REMARK  320  A    between atoms: _787  and  _788
REMARK  321  A    between atoms: _791  and  _793
REMARK  322  A    between atoms: _793  and  _794
REMARK  323  A    between atoms: _793  and  _796
REMARK  324  A    between atoms: _796  and  _797
REMARK  325  A    between atoms: _807  and  _809
REMARK  326  A    between atoms: _809  and  _810
REMARK  327  A    between atoms: _809  and  _812
REMARK  328  A    between atoms: _812  and  _813
REMARK  329  A    between atoms: _816  and  _818
REMARK  330  A    between atoms: _818  and  _819
REMARK  331  A    between atoms: _818  and  _821
REMARK  332  A    between atoms: _821  and  _822
REMARK  333  A    between atoms: _822  and  _823
REMARK  334  A    between atoms: _823  and  _824
REMARK  335  A    between atoms: _833  and  _835
REMARK  336  A    between atoms: _835  and  _836
REMARK  337  A    between atoms: _835  and  _838
REMARK  338  A    between atoms: _838  and  _839
REMARK  339  A    between atoms: _844  and  _845
REMARK                            x       y       z     vdW  Elec       q    Type
REMARK                         _______ _______ _______ _____ _____    ______ ____
ROOT
ATOM      1  O   HOH     1      47.820  61.765  -4.155  0.00  0.00    +0.000 OA
ENDROOT
TORSDOF 0
REMARK  Name = ../refined-set-2016/1fzo/1fzo_pocket.pdb
REMARK  339 active torsions:
REMARK  status: ('A' for Active; 'I' for Inactive)
REMARK    1  A    between atoms: _1  and  _3
REMARK    2  A    between atoms: _3  and  _4
REMARK    3  A    between atoms: _3  and  _6
REMARK    4  A    between atoms: _6  and  _7
REMARK    5  A    between atoms: _10  and  _12
REMARK    6  A    between atoms: _12  and  _13
REMARK    7  A    between atoms: _12  and  _15
REMARK    8  A    between atoms: _15  and  _16
REMARK    9  A    between atoms: _16  and  _17
REMARK   10  A    between atoms: _17  and  _18
REMARK   11  A    between atoms: _27  and  _29
REMARK   12  A    between atoms: _29  and  _30
REMARK   13  A    between atoms: _29  and  _32
REMARK   14  A    between atoms: _32  and  _33
REMARK   15  A    between atoms: _38  and  _39
REMARK   16  A    between atoms: _41  and  _43
REMARK   17  A    between atoms: _43  and  _44
REMARK   18  A    between atoms: _43  and  _46
REMARK   19  A    between atoms: _46  and  _47
REMARK   20  A    between atoms: _53  and  _55
REMARK   21  A    between atoms: _55  and  _56
REMARK   22  A    between atoms: _55  and  _58
REMARK   23  A    between atoms: _61  and  _63
REMARK   24  A    between atoms: _63  and  _64
REMARK   25  A    between atoms: _63  and  _66
REMARK   26  A    between atoms: _66  and  _67
REMARK   27  A    between atoms: _70  and  _72
REMARK   28  A    between atoms: _72  and  _73
REMARK   29  A    between atoms: _72  and  _75
REMARK   30  A    between atoms: _75  and  _76
REMARK   31  A    between atoms: _82  and  _84
REMARK   32  A    between atoms: _84  and  _85
REMARK   33  A    between atoms: _84  and  _87
REMARK   34  A    between atoms: _87  and  _88
REMARK   35  A    between atoms: _91  and  _93
REMARK   36  A    between atoms: _93  and  _94
REMARK   37  A    between atoms: _93  and  _96
REMARK   38  A    between atoms: _96  and  _97
REMARK   39  A    between atoms: _99  and  _101
REMARK   40  A    between atoms: _101  and  _102
REMARK   41  A    between atoms: _101  and  _104
REMARK   42  A    between atoms: _107  and  _109
REMARK   43  A    between atoms: _109  and  _110
REMARK   44  A    between atoms: _112  and  _114
REMARK   45  A    between atoms: _114  and  _115
REMARK   46  A    between atoms: _114  and  _117
REMARK   47  A    between atoms: _120  and  _122
REMARK   48  A    between atoms: _122  and  _123
REMARK   49  A    between atoms: _122  and  _125
REMARK   50  A    between atoms: _125  and  _126
REMARK   51  A    between atoms: _132  and  _134
REMARK   52  A    between atoms: _134  and  _135
REMARK   53  A    between atoms: _134  and  _137
REMARK   54  A    between atoms: _140  and  _142
REMARK   55  A    between atoms: _142  and  _143
REMARK   56  A    between atoms: _142  and  _145
REMARK   57  A    between atoms: _145  and  _146
REMARK   58  A    between atoms: _151  and  _152
REMARK   59  A    between atoms: _154  and  _156
REMARK   60  A    between atoms: _156  and  _157
REMARK   61  A    between atoms: _156  and  _159
REMARK   62  A    between atoms: _159  and  _160
REMARK   63  A    between atoms: _160  and  _161
REMARK   64  A    between atoms: _163  and  _165
REMARK   65  A    between atoms: _165  and  _166
REMARK   66  A    between atoms: _165  and  _168
REMARK   67  A    between atoms: _168  and  _169
REMARK   68  A    between atoms: _169  and  _170
REMARK   69  A    between atoms: _173  and  _175
REMARK   70  A    between atoms: _175  and  _176
REMARK   71  A    between atoms: _175  and  _178
REMARK   72  A    between atoms: _178  and  _179
REMARK   73  A    between atoms: _179  and  _180
REMARK   74  A    between atoms: _183  and  _185
REMARK   75  A    between atoms: _185  and  _186
REMARK   76  A    between atoms: _185  and  _188
REMARK   77  A    between atoms: _188  and  _189
REMARK   78  A    between atoms: _194  and  _195
REMARK   79  A    between atoms: _197  and  _199
REMARK   80  A    between atoms: _199  and  _200
REMARK   81  A    between atoms: _199  and  _202
REMARK   82  A    between atoms: _202  and  _203
REMARK   83  A    between atoms: _213  and  _215
REMARK   84  A    between atoms: _215  and  _216
REMARK   85  A    between atoms: _215  and  _218
REMARK   86  A    between atoms: _218  and  _219
REMARK   87  A    between atoms: _219  and  _220
REMARK   88  A    between atoms: _223  and  _225
REMARK   89  A    between atoms: _225  and  _226
REMARK   90  A    between atoms: _225  and  _228
REMARK   91  A    between atoms: _228  and  _229
REMARK   92  A    between atoms: _229  and  _230
REMARK   93  A    between atoms: _230  and  _231
REMARK   94  A    between atoms: _240  and  _242
REMARK   95  A    between atoms: _242  and  _243
REMARK   96  A    between atoms: _242  and  _245
REMARK   97  A    between atoms: _245  and  _246
REMARK   98  A    between atoms: _246  and  _247
REMARK   99  A    between atoms: _250  and  _252
REMARK  100  A    between atoms: _252  and  _253
REMARK  101  A    between atoms: _252  and  _255
REMARK  102  A    between atoms: _255  and  _256
REMARK  103  A    between atoms: _259  and  _261
REMARK  104  A    between atoms: _261  and  _262
REMARK  105  A    between atoms: _261  and  _264
REMARK  106  A    between atoms: _264  and  _265
REMARK  107  A    between atoms: _265  and  _266
REMARK  108  A    between atoms: _271  and  _273
REMARK  109  A    between atoms: _273  and  _274
REMARK  110  A    between atoms: _273  and  _276
REMARK  111  A    between atoms: _276  and  _277
REMARK  112  A    between atoms: _277  and  _278
REMARK  113  A    between atoms: _278  and  _279
REMARK  114  A    between atoms: _279  and  _280
REMARK  115  A    between atoms: _284  and  _286
REMARK  116  A    between atoms: _286  and  _287
REMARK  117  A    between atoms: _290  and  _292
REMARK  118  A    between atoms: _292  and  _293
REMARK  119  A    between atoms: _295  and  _297
REMARK  120  A    between atoms: _297  and  _298
REMARK  121  A    between atoms: _297  and  _300
REMARK  122  A    between atoms: _300  and  _301
REMARK  123  A    between atoms: _306  and  _308
REMARK  124  A    between atoms: _308  and  _309
REMARK  125  A    between atoms: _308  and  _311
REMARK  126  A    between atoms: _311  and  _312
REMARK  127  A    between atoms: _312  and  _313
REMARK  128  A    between atoms: _316  and  _318
REMARK  129  A    between atoms: _318  and  _319
REMARK  130  A    between atoms: _318  and  _321
REMARK  131  A    between atoms: _321  and  _322
REMARK  132  A    between atoms: _322  and  _323
REMARK  133  A    between atoms: _328  and  _330
REMARK  134  A    between atoms: _330  and  _331
REMARK  135  A    between atoms: _330  and  _333
REMARK  136  A    between atoms: _333  and  _334
REMARK  137  A    between atoms: _336  and  _338
REMARK  138  A    between atoms: _338  and  _339
REMARK  139  A    between atoms: _338  and  _341
REMARK  140  A    between atoms: _341  and  _342
REMARK  141  A    between atoms: _348  and  _350
REMARK  142  A    between atoms: _350  and  _351
REMARK  143  A    between atoms: _350  and  _353
REMARK  144  A    between atoms: _356  and  _358
REMARK  145  A    between atoms: _358  and  _359
REMARK  146  A    between atoms: _358  and  _361
REMARK  147  A    between atoms: _361  and  _362
REMARK  148  A    between atoms: _365  and  _367
REMARK  149  A    between atoms: _367  and  _368
REMARK  150  A    between atoms: _367  and  _370
REMARK  151  A    between atoms: _370  and  _371
REMARK  152  A    between atoms: _374  and  _376
REMARK  153  A    between atoms: _376  and  _377
REMARK  154  A    between atoms: _376  and  _379
REMARK  155  A    between atoms: _379  and  _380
REMARK  156  A    between atoms: _383  and  _385
REMARK  157  A    between atoms: _385  and  _386
REMARK  158  A    between atoms: _385  and  _388
REMARK  159  A    between atoms: _388  and  _389
REMARK  160  A    between atoms: _392  and  _394
REMARK  161  A    between atoms: _394  and  _395
REMARK  162  A    between atoms: _394  and  _397
REMARK  163  A    between atoms: _397  and  _398
REMARK  164  A    between atoms: _403  and  _404
REMARK  165  A    between atoms: _406  and  _408
REMARK  166  A    between atoms: _408  and  _409
REMARK  167  A    between atoms: _408  and  _411
REMARK  168  A    between atoms: _411  and  _412
REMARK  169  A    between atoms: _417  and  _418
REMARK  170  A    between atoms: _420  and  _422
REMARK  171  A    between atoms: _422  and  _423
REMARK  172  A    between atoms: _422  and  _425
REMARK  173  A    between atoms: _425  and  _426
REMARK  174  A    between atoms: _429  and  _431
REMARK  175  A    between atoms: _431  and  _432
REMARK  176  A    between atoms: _431  and  _434
REMARK  177  A    between atoms: _434  and  _435
REMARK  178  A    between atoms: _435  and  _436
REMARK  179  A    between atoms: _441  and  _443
REMARK  180  A    between atoms: _443  and  _444
REMARK  181  A    between atoms: _443  and  _446
REMARK  182  A    between atoms: _449  and  _451
REMARK  183  A    between atoms: _451  and  _452
REMARK  184  A    between atoms: _451  and  _454
REMARK  185  A    between atoms: _454  and  _455
REMARK  186  A    between atoms: _458  and  _460
REMARK  187  A    between atoms: _460  and  _461
REMARK  188  A    between atoms: _460  and  _463
REMARK  189  A    between atoms: _463  and  _464
REMARK  190  A    between atoms: _466  and  _468
REMARK  191  A    between atoms: _468  and  _469
REMARK  192  A    between atoms: _471  and  _473
REMARK  193  A    between atoms: _473  and  _474
REMARK  194  A    between atoms: _473  and  _476
REMARK  195  A    between atoms: _476  and  _477
REMARK  196  A    between atoms: _477  and  _772
REMARK  197  A    between atoms: _478  and  _480
REMARK  198  A    between atoms: _480  and  _481
REMARK  199  A    between atoms: _480  and  _483
REMARK  200  A    between atoms: _483  and  _484
REMARK  201  A    between atoms: _489  and  _490
REMARK  202  A    between atoms: _492  and  _494
REMARK  203  A    between atoms: _494  and  _495
REMARK  204  A    between atoms: _494  and  _497
REMARK  205  A    between atoms: _497  and  _498
REMARK  206  A    between atoms: _498  and  _499
REMARK  207  A    between atoms: _504  and  _506
REMARK  208  A    between atoms: _506  and  _507
REMARK  209  A    between atoms: _506  and  _509
REMARK  210  A    between atoms: _509  and  _510
REMARK  211  A    between atoms: _510  and  _511
REMARK  212  A    between atoms: _516  and  _518
REMARK  213  A    between atoms: _518  and  _519
REMARK  214  A    between atoms: _518  and  _521
REMARK  215  A    between atoms: _521  and  _522
REMARK  216  A    between atoms: _527  and  _528
REMARK  217  A    between atoms: _530  and  _532
REMARK  218  A    between atoms: _532  and  _533
REMARK  219  A    between atoms: _536  and  _538
REMARK  220  A    between atoms: _538  and  _539
REMARK  221  A    between atoms: _538  and  _541
REMARK  222  A    between atoms: _541  and  _542
REMARK  223  A    between atoms: _547  and  _548
REMARK  224  A    between atoms: _550  and  _552
REMARK  225  A    between atoms: _552  and  _553
REMARK  226  A    between atoms: _552  and  _555
REMARK  227  A    between atoms: _555  and  _556
REMARK  228  A    between atoms: _561  and  _562
REMARK  229  A    between atoms: _564  and  _566
REMARK  230  A    between atoms: _566  and  _567
REMARK  231  A    between atoms: _566  and  _569
REMARK  232  A    between atoms: _569  and  _570
REMARK  233  A    between atoms: _573  and  _575
REMARK  234  A    between atoms: _575  and  _576
REMARK  235  A    between atoms: _575  and  _578
REMARK  236  A    between atoms: _578  and  _579
REMARK  237  A    between atoms: _589  and  _591
REMARK  238  A    between atoms: _591  and  _592
REMARK  239  A    between atoms: _595  and  _597
REMARK  240  A    between atoms: _597  and  _598
REMARK  241  A    between atoms: _601  and  _603
REMARK  242  A    between atoms: _603  and  _604
REMARK  243  A    between atoms: _603  and  _606
REMARK  244  A    between atoms: _606  and  _607
REMARK  245  A    between atoms: _610  and  _612
REMARK  246  A    between atoms: _612  and  _613
REMARK  247  A    between atoms: _612  and  _615
REMARK  248  A    between atoms: _615  and  _616
REMARK  249  A    between atoms: _619  and  _621
REMARK  250  A    between atoms: _621  and  _622
REMARK  251  A    between atoms: _621  and  _624
REMARK  252  A    between atoms: _624  and  _625
REMARK  253  A    between atoms: _628  and  _630
REMARK  254  A    between atoms: _630  and  _631
REMARK  255  A    between atoms: _630  and  _633
REMARK  256  A    between atoms: _633  and  _634
REMARK  257  A    between atoms: _634  and  _635
REMARK  258  A    between atoms: _635  and  _636
REMARK  259  A    between atoms: _636  and  _637
REMARK  260  A    between atoms: _641  and  _643
REMARK  261  A    between atoms: _643  and  _644
REMARK  262  A    between atoms: _643  and  _646
REMARK  263  A    between atoms: _646  and  _647
REMARK  264  A    between atoms: _652  and  _654
REMARK  265  A    between atoms: _654  and  _655
REMARK  266  A    between atoms: _654  and  _657
REMARK  267  A    between atoms: _657  and  _658
REMARK  268  A    between atoms: _658  and  _659
REMARK  269  A    between atoms: _659  and  _660
REMARK  270  A    between atoms: _660  and  _661
REMARK  271  A    between atoms: _665  and  _667
REMARK  272  A    between atoms: _667  and  _668
REMARK  273  A    between atoms: _667  and  _670
REMARK  274  A    between atoms: _670  and  _671
REMARK  275  A    between atoms: _681  and  _683
REMARK  276  A    between atoms: _683  and  _684
REMARK  277  A    between atoms: _687  and  _689
REMARK  278  A    between atoms: _689  and  _690
REMARK  279  A    between atoms: _692  and  _694
REMARK  280  A    between atoms: _694  and  _695
REMARK  281  A    between atoms: _694  and  _697
REMARK  282  A    between atoms: _697  and  _698
REMARK  283  A    between atoms: _698  and  _699
REMARK  284  A    between atoms: _702  and  _704
REMARK  285  A    between atoms: _704  and  _705
REMARK  286  A    between atoms: _708  and  _710
REMARK  287  A    between atoms: _710  and  _711
REMARK  288  A    between atoms: _710  and  _713
REMARK  289  A    between atoms: _713  and  _714
REMARK  290  A    between atoms: _714  and  _715
REMARK  291  A    between atoms: _715  and  _716
REMARK  292  A    between atoms: _725  and  _727
REMARK  293  A    between atoms: _727  and  _728
REMARK  294  A    between atoms: _727  and  _730
REMARK  295  A    between atoms: _730  and  _731
REMARK  296  A    between atoms: _734  and  _736
REMARK  297  A    between atoms: _736  and  _737
REMARK  298  A    between atoms: _736  and  _739
REMARK  299  A    between atoms: _739  and  _740
REMARK  300  A    between atoms: _745  and  _746
REMARK  301  A    between atoms: _748  and  _750
REMARK  302  A    between atoms: _750  and  _751
REMARK  303  A    between atoms: _750  and  _753
REMARK  304  A    between atoms: _753  and  _754
REMARK  305  A    between atoms: _757  and  _759
REMARK  306  A    between atoms: _759  and  _760
REMARK  307  A    between atoms: _759  and  _762
REMARK  308  A    between atoms: _762  and  _763
REMARK  309  A    between atoms: _766  and  _768
REMARK  310  A    between atoms: _768  and  _769
REMARK  311  A    between atoms: _768  and  _771
REMARK  312  A    between atoms: _771  and  _772
REMARK  313  A    between atoms: _773  and  _775
REMARK  314  A    between atoms: _775  and  _776
REMARK  315  A    between atoms: _775  and  _778
REMARK  316  A    between atoms: _781  and  _783
REMARK  317  A    between atoms: _783  and  _784
REMARK  318  A    between atoms: _783  and  _786
REMARK  319  A    between atoms: _786  and  _787
REMARK  320  A    between atoms: _787  and  _788
REMARK  321  A    between atoms: _791  and  _793
REMARK  322  A    between atoms: _793  and  _794
REMARK  323  A    between atoms: _793  and  _796
REMARK  324  A    between atoms: _796  and  _797
REMARK  325  A    between atoms: _807  and  _809
REMARK  326  A    between atoms: _809  and  _810
REMARK  327  A    between atoms: _809  and  _812
REMARK  328  A    between atoms: _812  and  _813
REMARK  329  A    between atoms: _816  and  _818
REMARK  330  A    between atoms: _818  and  _819
REMARK  331  A    between atoms: _818  and  _821
REMARK  332  A    between atoms: _821  and  _822
REMARK  333  A    between atoms: _822  and  _823
REMARK  334  A    between atoms: _823  and  _824
REMARK  335  A    between atoms: _833  and  _835
REMARK  336  A    between atoms: _835  and  _836
REMARK  337  A    between atoms: _835  and  _838
REMARK  338  A    between atoms: _838  and  _839
REMARK  339  A    between atoms: _844  and  _845
REMARK                            x       y       z     vdW  Elec       q    Type
REMARK                         _______ _______ _______ _____ _____    ______ ____
ROOT
ATOM      1  O   HOH     1      48.521  63.286  -2.030  0.00  0.00    +0.000 OA
ENDROOT
TORSDOF 0
REMARK  Name = ../refined-set-2016/1fzo/1fzo_pocket.pdb
REMARK  339 active torsions:
REMARK  status: ('A' for Active; 'I' for Inactive)
REMARK    1  A    between atoms: _1  and  _3
REMARK    2  A    between atoms: _3  and  _4
REMARK    3  A    between atoms: _3  and  _6
REMARK    4  A    between atoms: _6  and  _7
REMARK    5  A    between atoms: _10  and  _12
REMARK    6  A    between atoms: _12  and  _13
REMARK    7  A    between atoms: _12  and  _15
REMARK    8  A    between atoms: _15  and  _16
REMARK    9  A    between atoms: _16  and  _17
REMARK   10  A    between atoms: _17  and  _18
REMARK   11  A    between atoms: _27  and  _29
REMARK   12  A    between atoms: _29  and  _30
REMARK   13  A    between atoms: _29  and  _32
REMARK   14  A    between atoms: _32  and  _33
REMARK   15  A    between atoms: _38  and  _39
REMARK   16  A    between atoms: _41  and  _43
REMARK   17  A    between atoms: _43  and  _44
REMARK   18  A    between atoms: _43  and  _46
REMARK   19  A    between atoms: _46  and  _47
REMARK   20  A    between atoms: _53  and  _55
REMARK   21  A    between atoms: _55  and  _56
REMARK   22  A    between atoms: _55  and  _58
REMARK   23  A    between atoms: _61  and  _63
REMARK   24  A    between atoms: _63  and  _64
REMARK   25  A    between atoms: _63  and  _66
REMARK   26  A    between atoms: _66  and  _67
REMARK   27  A    between atoms: _70  and  _72
REMARK   28  A    between atoms: _72  and  _73
REMARK   29  A    between atoms: _72  and  _75
REMARK   30  A    between atoms: _75  and  _76
REMARK   31  A    between atoms: _82  and  _84
REMARK   32  A    between atoms: _84  and  _85
REMARK   33  A    between atoms: _84  and  _87
REMARK   34  A    between atoms: _87  and  _88
REMARK   35  A    between atoms: _91  and  _93
REMARK   36  A    between atoms: _93  and  _94
REMARK   37  A    between atoms: _93  and  _96
REMARK   38  A    between atoms: _96  and  _97
REMARK   39  A    between atoms: _99  and  _101
REMARK   40  A    between atoms: _101  and  _102
REMARK   41  A    between atoms: _101  and  _104
REMARK   42  A    between atoms: _107  and  _109
REMARK   43  A    between atoms: _109  and  _110
REMARK   44  A    between atoms: _112  and  _114
REMARK   45  A    between atoms: _114  and  _115
REMARK   46  A    between atoms: _114  and  _117
REMARK   47  A    between atoms: _120  and  _122
REMARK   48  A    between atoms: _122  and  _123
REMARK   49  A    between atoms: _122  and  _125
REMARK   50  A    between atoms: _125  and  _126
REMARK   51  A    between atoms: _132  and  _134
REMARK   52  A    between atoms: _134  and  _135
REMARK   53  A    between atoms: _134  and  _137
REMARK   54  A    between atoms: _140  and  _142
REMARK   55  A    between atoms: _142  and  _143
REMARK   56  A    between atoms: _142  and  _145
REMARK   57  A    between atoms: _145  and  _146
REMARK   58  A    between atoms: _151  and  _152
REMARK   59  A    between atoms: _154  and  _156
REMARK   60  A    between atoms: _156  and  _157
REMARK   61  A    between atoms: _156  and  _159
REMARK   62  A    between atoms: _159  and  _160
REMARK   63  A    between atoms: _160  and  _161
REMARK   64  A    between atoms: _163  and  _165
REMARK   65  A    between atoms: _165  and  _166
REMARK   66  A    between atoms: _165  and  _168
REMARK   67  A    between atoms: _168  and  _169
REMARK   68  A    between atoms: _169  and  _170
REMARK   69  A    between atoms: _173  and  _175
REMARK   70  A    between atoms: _175  and  _176
REMARK   71  A    between atoms: _175  and  _178
REMARK   72  A    between atoms: _178  and  _179
REMARK   73  A    between atoms: _179  and  _180
REMARK   74  A    between atoms: _183  and  _185
REMARK   75  A    between atoms: _185  and  _186
REMARK   76  A    between atoms: _185  and  _188
REMARK   77  A    between atoms: _188  and  _189
REMARK   78  A    between atoms: _194  and  _195
REMARK   79  A    between atoms: _197  and  _199
REMARK   80  A    between atoms: _199  and  _200
REMARK   81  A    between atoms: _199  and  _202
REMARK   82  A    between atoms: _202  and  _203
REMARK   83  A    between atoms: _213  and  _215
REMARK   84  A    between atoms: _215  and  _216
REMARK   85  A    between atoms: _215  and  _218
REMARK   86  A    between atoms: _218  and  _219
REMARK   87  A    between atoms: _219  and  _220
REMARK   88  A    between atoms: _223  and  _225
REMARK   89  A    between atoms: _225  and  _226
REMARK   90  A    between atoms: _225  and  _228
REMARK   91  A    between atoms: _228  and  _229
REMARK   92  A    between atoms: _229  and  _230
REMARK   93  A    between atoms: _230  and  _231
REMARK   94  A    between atoms: _240  and  _242
REMARK   95  A    between atoms: _242  and  _243
REMARK   96  A    between atoms: _242  and  _245
REMARK   97  A    between atoms: _245  and  _246
REMARK   98  A    between atoms: _246  and  _247
REMARK   99  A    between atoms: _250  and  _252
REMARK  100  A    between atoms: _252  and  _253
REMARK  101  A    between atoms: _252  and  _255
REMARK  102  A    between atoms: _255  and  _256
REMARK  103  A    between atoms: _259  and  _261
REMARK  104  A    between atoms: _261  and  _262
REMARK  105  A    between atoms: _261  and  _264
REMARK  106  A    between atoms: _264  and  _265
REMARK  107  A    between atoms: _265  and  _266
REMARK  108  A    between atoms: _271  and  _273
REMARK  109  A    between atoms: _273  and  _274
REMARK  110  A    between atoms: _273  and  _276
REMARK  111  A    between atoms: _276  and  _277
REMARK  112  A    between atoms: _277  and  _278
REMARK  113  A    between atoms: _278  and  _279
REMARK  114  A    between atoms: _279  and  _280
REMARK  115  A    between atoms: _284  and  _286
REMARK  116  A    between atoms: _286  and  _287
REMARK  117  A    between atoms: _290  and  _292
REMARK  118  A    between atoms: _292  and  _293
REMARK  119  A    between atoms: _295  and  _297
REMARK  120  A    between atoms: _297  and  _298
REMARK  121  A    between atoms: _297  and  _300
REMARK  122  A    between atoms: _300  and  _301
REMARK  123  A    between atoms: _306  and  _308
REMARK  124  A    between atoms: _308  and  _309
REMARK  125  A    between atoms: _308  and  _311
REMARK  126  A    between atoms: _311  and  _312
REMARK  127  A    between atoms: _312  and  _313
REMARK  128  A    between atoms: _316  and  _318
REMARK  129  A    between atoms: _318  and  _319
REMARK  130  A    between atoms: _318  and  _321
REMARK  131  A    between atoms: _321  and  _322
REMARK  132  A    between atoms: _322  and  _323
REMARK  133  A    between atoms: _328  and  _330
REMARK  134  A    between atoms: _330  and  _331
REMARK  135  A    between atoms: _330  and  _333
REMARK  136  A    between atoms: _333  and  _334
REMARK  137  A    between atoms: _336  and  _338
REMARK  138  A    between atoms: _338  and  _339
REMARK  139  A    between atoms: _338  and  _341
REMARK  140  A    between atoms: _341  and  _342
REMARK  141  A    between atoms: _348  and  _350
REMARK  142  A    between atoms: _350  and  _351
REMARK  143  A    between atoms: _350  and  _353
REMARK  144  A    between atoms: _356  and  _358
REMARK  145  A    between atoms: _358  and  _359
REMARK  146  A    between atoms: _358  and  _361
REMARK  147  A    between atoms: _361  and  _362
REMARK  148  A    between atoms: _365  and  _367
REMARK  149  A    between atoms: _367  and  _368
REMARK  150  A    between atoms: _367  and  _370
REMARK  151  A    between atoms: _370  and  _371
REMARK  152  A    between atoms: _374  and  _376
REMARK  153  A    between atoms: _376  and  _377
REMARK  154  A    between atoms: _376  and  _379
REMARK  155  A    between atoms: _379  and  _380
REMARK  156  A    between atoms: _383  and  _385
REMARK  157  A    between atoms: _385  and  _386
REMARK  158  A    between atoms: _385  and  _388
REMARK  159  A    between atoms: _388  and  _389
REMARK  160  A    between atoms: _392  and  _394
REMARK  161  A    between atoms: _394  and  _395
REMARK  162  A    between atoms: _394  and  _397
REMARK  163  A    between atoms: _397  and  _398
REMARK  164  A    between atoms: _403  and  _404
REMARK  165  A    between atoms: _406  and  _408
REMARK  166  A    between atoms: _408  and  _409
REMARK  167  A    between atoms: _408  and  _411
REMARK  168  A    between atoms: _411  and  _412
REMARK  169  A    between atoms: _417  and  _418
REMARK  170  A    between atoms: _420  and  _422
REMARK  171  A    between atoms: _422  and  _423
REMARK  172  A    between atoms: _422  and  _425
REMARK  173  A    between atoms: _425  and  _426
REMARK  174  A    between atoms: _429  and  _431
REMARK  175  A    between atoms: _431  and  _432
REMARK  176  A    between atoms: _431  and  _434
REMARK  177  A    between atoms: _434  and  _435
REMARK  178  A    between atoms: _435  and  _436
REMARK  179  A    between atoms: _441  and  _443
REMARK  180  A    between atoms: _443  and  _444
REMARK  181  A    between atoms: _443  and  _446
REMARK  182  A    between atoms: _449  and  _451
REMARK  183  A    between atoms: _451  and  _452
REMARK  184  A    between atoms: _451  and  _454
REMARK  185  A    between atoms: _454  and  _455
REMARK  186  A    between atoms: _458  and  _460
REMARK  187  A    between atoms: _460  and  _461
REMARK  188  A    between atoms: _460  and  _463
REMARK  189  A    between atoms: _463  and  _464
REMARK  190  A    between atoms: _466  and  _468
REMARK  191  A    between atoms: _468  and  _469
REMARK  192  A    between atoms: _471  and  _473
REMARK  193  A    between atoms: _473  and  _474
REMARK  194  A    between atoms: _473  and  _476
REMARK  195  A    between atoms: _476  and  _477
REMARK  196  A    between atoms: _477  and  _772
REMARK  197  A    between atoms: _478  and  _480
REMARK  198  A    between atoms: _480  and  _481
REMARK  199  A    between atoms: _480  and  _483
REMARK  200  A    between atoms: _483  and  _484
REMARK  201  A    between atoms: _489  and  _490
REMARK  202  A    between atoms: _492  and  _494
REMARK  203  A    between atoms: _494  and  _495
REMARK  204  A    between atoms: _494  and  _497
REMARK  205  A    between atoms: _497  and  _498
REMARK  206  A    between atoms: _498  and  _499
REMARK  207  A    between atoms: _504  and  _506
REMARK  208  A    between atoms: _506  and  _507
REMARK  209  A    between atoms: _506  and  _509
REMARK  210  A    between atoms: _509  and  _510
REMARK  211  A    between atoms: _510  and  _511
REMARK  212  A    between atoms: _516  and  _518
REMARK  213  A    between atoms: _518  and  _519
REMARK  214  A    between atoms: _518  and  _521
REMARK  215  A    between atoms: _521  and  _522
REMARK  216  A    between atoms: _527  and  _528
REMARK  217  A    between atoms: _530  and  _532
REMARK  218  A    between atoms: _532  and  _533
REMARK  219  A    between atoms: _536  and  _538
REMARK  220  A    between atoms: _538  and  _539
REMARK  221  A    between atoms: _538  and  _541
REMARK  222  A    between atoms: _541  and  _542
REMARK  223  A    between atoms: _547  and  _548
REMARK  224  A    between atoms: _550  and  _552
REMARK  225  A    between atoms: _552  and  _553
REMARK  226  A    between atoms: _552  and  _555
REMARK  227  A    between atoms: _555  and  _556
REMARK  228  A    between atoms: _561  and  _562
REMARK  229  A    between atoms: _564  and  _566
REMARK  230  A    between atoms: _566  and  _567
REMARK  231  A    between atoms: _566  and  _569
REMARK  232  A    between atoms: _569  and  _570
REMARK  233  A    between atoms: _573  and  _575
REMARK  234  A    between atoms: _575  and  _576
REMARK  235  A    between atoms: _575  and  _578
REMARK  236  A    between atoms: _578  and  _579
REMARK  237  A    between atoms: _589  and  _591
REMARK  238  A    between atoms: _591  and  _592
REMARK  239  A    between atoms: _595  and  _597
REMARK  240  A    between atoms: _597  and  _598
REMARK  241  A    between atoms: _601  and  _603
REMARK  242  A    between atoms: _603  and  _604
REMARK  243  A    between atoms: _603  and  _606
REMARK  244  A    between atoms: _606  and  _607
REMARK  245  A    between atoms: _610  and  _612
REMARK  246  A    between atoms: _612  and  _613
REMARK  247  A    between atoms: _612  and  _615
REMARK  248  A    between atoms: _615  and  _616
REMARK  249  A    between atoms: _619  and  _621
REMARK  250  A    between atoms: _621  and  _622
REMARK  251  A    between atoms: _621  and  _624
REMARK  252  A    between atoms: _624  and  _625
REMARK  253  A    between atoms: _628  and  _630
REMARK  254  A    between atoms: _630  and  _631
REMARK  255  A    between atoms: _630  and  _633
REMARK  256  A    between atoms: _633  and  _634
REMARK  257  A    between atoms: _634  and  _635
REMARK  258  A    between atoms: _635  and  _636
REMARK  259  A    between atoms: _636  and  _637
REMARK  260  A    between atoms: _641  and  _643
REMARK  261  A    between atoms: _643  and  _644
REMARK  262  A    between atoms: _643  and  _646
REMARK  263  A    between atoms: _646  and  _647
REMARK  264  A    between atoms: _652  and  _654
REMARK  265  A    between atoms: _654  and  _655
REMARK  266  A    between atoms: _654  and  _657
REMARK  267  A    between atoms: _657  and  _658
REMARK  268  A    between atoms: _658  and  _659
REMARK  269  A    between atoms: _659  and  _660
REMARK  270  A    between atoms: _660  and  _661
REMARK  271  A    between atoms: _665  and  _667
REMARK  272  A    between atoms: _667  and  _668
REMARK  273  A    between atoms: _667  and  _670
REMARK  274  A    between atoms: _670  and  _671
REMARK  275  A    between atoms: _681  and  _683
REMARK  276  A    between atoms: _683  and  _684
REMARK  277  A    between atoms: _687  and  _689
REMARK  278  A    between atoms: _689  and  _690
REMARK  279  A    between atoms: _692  and  _694
REMARK  280  A    between atoms: _694  and  _695
REMARK  281  A    between atoms: _694  and  _697
REMARK  282  A    between atoms: _697  and  _698
REMARK  283  A    between atoms: _698  and  _699
REMARK  284  A    between atoms: _702  and  _704
REMARK  285  A    between atoms: _704  and  _705
REMARK  286  A    between atoms: _708  and  _710
REMARK  287  A    between atoms: _710  and  _711
REMARK  288  A    between atoms: _710  and  _713
REMARK  289  A    between atoms: _713  and  _714
REMARK  290  A    between atoms: _714  and  _715
REMARK  291  A    between atoms: _715  and  _716
REMARK  292  A    between atoms: _725  and  _727
REMARK  293  A    between atoms: _727  and  _728
REMARK  294  A    between atoms: _727  and  _730
REMARK  295  A    between atoms: _730  and  _731
REMARK  296  A    between atoms: _734  and  _736
REMARK  297  A    between atoms: _736  and  _737
REMARK  298  A    between atoms: _736  and  _739
REMARK  299  A    between atoms: _739  and  _740
REMARK  300  A    between atoms: _745  and  _746
REMARK  301  A    between atoms: _748  and  _750
REMARK  302  A    between atoms: _750  and  _751
REMARK  303  A    between atoms: _750  and  _753
REMARK  304  A    between atoms: _753  and  _754
REMARK  305  A    between atoms: _757  and  _759
REMARK  306  A    between atoms: _759  and  _760
REMARK  307  A    between atoms: _759  and  _762
REMARK  308  A    between atoms: _762  and  _763
REMARK  309  A    between atoms: _766  and  _768
REMARK  310  A    between atoms: _768  and  _769
REMARK  311  A    between atoms: _768  and  _771
REMARK  312  A    between atoms: _771  and  _772
REMARK  313  A    between atoms: _773  and  _775
REMARK  314  A    between atoms: _775  and  _776
REMARK  315  A    between atoms: _775  and  _778
REMARK  316  A    between atoms: _781  and  _783
REMARK  317  A    between atoms: _783  and  _784
REMARK  318  A    between atoms: _783  and  _786
REMARK  319  A    between atoms: _786  and  _787
REMARK  320  A    between atoms: _787  and  _788
REMARK  321  A    between atoms: _791  and  _793
REMARK  322  A    between atoms: _793  and  _794
REMARK  323  A    between atoms: _793  and  _796
REMARK  324  A    between atoms: _796  and  _797
REMARK  325  A    between atoms: _807  and  _809
REMARK  326  A    between atoms: _809  and  _810
REMARK  327  A    between atoms: _809  and  _812
REMARK  328  A    between atoms: _812  and  _813
REMARK  329  A    between atoms: _816  and  _818
REMARK  330  A    between atoms: _818  and  _819
REMARK  331  A    between atoms: _818  and  _821
REMARK  332  A    between atoms: _821  and  _822
REMARK  333  A    between atoms: _822  and  _823
REMARK  334  A    between atoms: _823  and  _824
REMARK  335  A    between atoms: _833  and  _835
REMARK  336  A    between atoms: _835  and  _836
REMARK  337  A    between atoms: _835  and  _838
REMARK  338  A    between atoms: _838  and  _839
REMARK  339  A    between atoms: _844  and  _845
REMARK                            x       y       z     vdW  Elec       q    Type
REMARK                         _______ _______ _______ _____ _____    ______ ____
ROOT
ATOM      1  O   HOH     1      46.616  61.375  -6.172  0.00  0.00    +0.000 OA
ENDROOT
TORSDOF 0
