REMARK  Name = ../refined-set-2016/3d4z/3d4z_pocket.pdb
REMARK  146 active torsions:
REMARK  status: ('A' for Active; 'I' for Inactive)
REMARK    1  A    between atoms: _1  and  _3
REMARK    2  A    between atoms: _14  and  _17
REMARK    3  A    between atoms: _17  and  _18
REMARK    4  A    between atoms: _25  and  _26
REMARK    5  A    between atoms: _33  and  _34
REMARK    6  A    between atoms: _39  and  _41
REMARK    7  A    between atoms: _41  and  _42
REMARK    8  A    between atoms: _44  and  _46
REMARK    9  A    between atoms: _46  and  _47
REMARK   10  A    between atoms: _46  and  _49
REMARK   11  A    between atoms: _49  and  _50
REMARK   12  A    between atoms: _60  and  _62
REMARK   13  A    between atoms: _62  and  _63
REMARK   14  A    between atoms: _62  and  _65
REMARK   15  A    between atoms: _65  and  _66
REMARK   16  A    between atoms: _69  and  _71
REMARK   17  A    between atoms: _71  and  _72
REMARK   18  A    between atoms: _71  and  _74
REMARK   19  A    between atoms: _74  and  _75
REMARK   20  A    between atoms: _80  and  _81
REMARK   21  A    between atoms: _83  and  _85
REMARK   22  A    between atoms: _85  and  _86
REMARK   23  A    between atoms: _85  and  _88
REMARK   24  A    between atoms: _88  and  _89
REMARK   25  A    between atoms: _89  and  _90
REMARK   26  A    between atoms: _92  and  _94
REMARK   27  A    between atoms: _94  and  _95
REMARK   28  A    between atoms: _94  and  _97
REMARK   29  A    between atoms: _97  and  _98
REMARK   30  A    between atoms: _101  and  _103
REMARK   31  A    between atoms: _103  and  _104
REMARK   32  A    between atoms: _103  and  _106
REMARK   33  A    between atoms: _106  and  _107
REMARK   34  A    between atoms: _107  and  _109
REMARK   35  A    between atoms: _109  and  ZN_399
REMARK   36  A    between atoms: _111  and  _112
REMARK   37  A    between atoms: _117  and  _119
REMARK   38  A    between atoms: _119  and  _120
REMARK   39  A    between atoms: _119  and  _122
REMARK   40  A    between atoms: _122  and  _123
REMARK   41  A    between atoms: _129  and  _131
REMARK   42  A    between atoms: _131  and  _132
REMARK   43  A    between atoms: _131  and  _134
REMARK   44  A    between atoms: _134  and  _135
REMARK   45  A    between atoms: _135  and  _136
REMARK   46  A    between atoms: _136  and  _137
REMARK   47  A    between atoms: _146  and  _148
REMARK   48  A    between atoms: _148  and  _149
REMARK   49  A    between atoms: _148  and  _151
REMARK   50  A    between atoms: _151  and  _152
REMARK   51  A    between atoms: _157  and  _158
REMARK   52  A    between atoms: _160  and  _162
REMARK   53  A    between atoms: _162  and  _163
REMARK   54  A    between atoms: _162  and  _165
REMARK   55  A    between atoms: _165  and  _166
REMARK   56  A    between atoms: _168  and  _170
REMARK   57  A    between atoms: _170  and  _171
REMARK   58  A    between atoms: _170  and  _173
REMARK   59  A    between atoms: _173  and  _174
REMARK   60  A    between atoms: _179  and  _180
REMARK   61  A    between atoms: _182  and  _184
REMARK   62  A    between atoms: _184  and  _185
REMARK   63  A    between atoms: _184  and  _187
REMARK   64  A    between atoms: _187  and  _188
REMARK   65  A    between atoms: _191  and  _193
REMARK   66  A    between atoms: _193  and  _194
REMARK   67  A    between atoms: _193  and  _196
REMARK   68  A    between atoms: _196  and  _197
REMARK   69  A    between atoms: _200  and  _202
REMARK   70  A    between atoms: _202  and  _203
REMARK   71  A    between atoms: _202  and  _205
REMARK   72  A    between atoms: _205  and  _206
REMARK   73  A    between atoms: _209  and  _211
REMARK   74  A    between atoms: _211  and  _212
REMARK   75  A    between atoms: _211  and  _214
REMARK   76  A    between atoms: _214  and  _215
REMARK   77  A    between atoms: _221  and  _223
REMARK   78  A    between atoms: _223  and  _224
REMARK   79  A    between atoms: _223  and  _226
REMARK   80  A    between atoms: _226  and  _227
REMARK   81  A    between atoms: _232  and  _233
REMARK   82  A    between atoms: _235  and  _237
REMARK   83  A    between atoms: _237  and  _238
REMARK   84  A    between atoms: _237  and  _240
REMARK   85  A    between atoms: _240  and  _241
REMARK   86  A    between atoms: _244  and  _246
REMARK   87  A    between atoms: _246  and  _247
REMARK   88  A    between atoms: _246  and  _249
REMARK   89  A    between atoms: _249  and  _250
REMARK   90  A    between atoms: _260  and  _262
REMARK   91  A    between atoms: _262  and  _263
REMARK   92  A    between atoms: _262  and  _265
REMARK   93  A    between atoms: _265  and  _266
REMARK   94  A    between atoms: _271  and  _273
REMARK   95  A    between atoms: _273  and  _274
REMARK   96  A    between atoms: _273  and  _276
REMARK   97  A    between atoms: _276  and  _277
REMARK   98  A    between atoms: _281  and  ZN_399
REMARK   99  A    between atoms: _282  and  _284
REMARK  100  A    between atoms: _284  and  _285
REMARK  101  A    between atoms: _284  and  _287
REMARK  102  A    between atoms: _287  and  _288
REMARK  103  A    between atoms: _291  and  _293
REMARK  104  A    between atoms: _293  and  _294
REMARK  105  A    between atoms: _296  and  _298
REMARK  106  A    between atoms: _298  and  _299
REMARK  107  A    between atoms: _298  and  _301
REMARK  108  A    between atoms: _301  and  _302
REMARK  109  A    between atoms: _305  and  _307
REMARK  110  A    between atoms: _307  and  _308
REMARK  111  A    between atoms: _307  and  _310
REMARK  112  A    between atoms: _310  and  _311
REMARK  113  A    between atoms: _314  and  _316
REMARK  114  A    between atoms: _316  and  _317
REMARK  115  A    between atoms: _320  and  _322
REMARK  116  A    between atoms: _322  and  _323
REMARK  117  A    between atoms: _326  and  _328
REMARK  118  A    between atoms: _328  and  _329
REMARK  119  A    between atoms: _328  and  _331
REMARK  120  A    between atoms: _331  and  _332
REMARK  121  A    between atoms: _337  and  _338
REMARK  122  A    between atoms: _340  and  _342
REMARK  123  A    between atoms: _342  and  _343
REMARK  124  A    between atoms: _342  and  _345
REMARK  125  A    between atoms: _345  and  _346
REMARK  126  A    between atoms: _349  and  _351
REMARK  127  A    between atoms: _351  and  _352
REMARK  128  A    between atoms: _351  and  _354
REMARK  129  A    between atoms: _354  and  _355
REMARK  130  A    between atoms: _358  and  _360
REMARK  131  A    between atoms: _360  and  _361
REMARK  132  A    between atoms: _360  and  _363
REMARK  133  A    between atoms: _363  and  _364
REMARK  134  A    between atoms: _364  and  _365
REMARK  135  A    between atoms: _368  and  _370
REMARK  136  A    between atoms: _370  and  _371
REMARK  137  A    between atoms: _370  and  _373
REMARK  138  A    between atoms: _373  and  _374
REMARK  139  A    between atoms: _374  and  _375
REMARK  140  A    between atoms: _375  and  _376
REMARK  141  A    between atoms: _385  and  _387
REMARK  142  A    between atoms: _387  and  _388
REMARK  143  A    between atoms: _390  and  _392
REMARK  144  A    between atoms: _392  and  _393
REMARK  145  A    between atoms: _392  and  _395
REMARK  146  A    between atoms: _395  and  _396
REMARK                            x       y       z     vdW  Elec       q    Type
REMARK                         _______ _______ _______ _____ _____    ______ ____
ROOT
ATOM      1  C   UNK A   1      36.482  61.089  13.536  0.00  0.00    +0.000 C 
ATOM      2  C   UNK A   1      37.180  62.433  13.457  0.00  0.00    +0.000 C 
ATOM      3  O   UNK A   1      36.667  63.433  13.967  0.00  0.00    +0.000 OA
ATOM      4  N   UNK A   2      38.342  62.513  12.805  0.00  0.00    +0.000 N 
ATOM      5  C   UNK A   2      39.146  63.745  12.770  0.00  0.00    +0.000 C 
ATOM      6  C   UNK A   2      39.232  64.260  11.340  0.00  0.00    +0.000 C 
ATOM      7  N   UNK A   3      38.450  65.237  10.982  0.00  0.00    +0.000 N 
ATOM      8  H   UNK A   3      37.758  65.604  11.666  0.00  0.00    +0.000 HD
ATOM      9  C   UNK A   3      38.512  65.838   9.645  0.00  0.00    +0.000 C 
ATOM     10  C   UNK A   3      37.349  66.822   9.513  0.00  0.00    +0.000 C 
ATOM     11  C   UNK A   3      36.030  66.083   9.373  0.00  0.00    +0.000 C 
ATOM     12  O   UNK A   3      35.052  66.550  10.017  0.00  0.00    +0.000 OA
ATOM     13  O   UNK A   3      35.973  65.068   8.643  0.00  0.00    +0.000 OA
ATOM     14 ZN   UNK A   1      34.382  63.824   8.066  0.00  0.00    +0.000 Zn
ATOM     15  N   UNK A   1      34.839  62.446   9.483  0.00  0.00    +0.000 N 
ATOM     16  C   UNK A   1      34.524  62.533  10.828  0.00  0.00    +0.000 A 
ATOM     17  C   UNK A   1      35.095  61.480  11.492  0.00  0.00    +0.000 A 
ATOM     18  N   UNK A   1      35.766  60.733  10.544  0.00  0.00    +0.000 NA
ATOM     19  C   UNK A   1      35.574  61.365   9.358  0.00  0.00    +0.000 A 
ATOM     20  O   UNK A   2      40.018  63.724  10.544  0.00  0.00    +0.000 OA
ATOM     21  H   UNK A   2      38.693  61.673  12.303  0.00  0.00    +0.000 HD
ATOM     22  C   UNK A   1      35.058  61.130  12.953  0.00  0.00    +0.000 C 
ENDROOT
BRANCH   9  23
ATOM     23  C   UNK A   3      39.803  66.632   9.468  0.00  0.00    +0.000 C 
ATOM     24  O   UNK A   3      40.017  67.556  10.256  0.00  0.00    +0.000 OA
ATOM     25  N   PRO A   4      40.657  66.286   8.526  0.00  0.00    +0.000 N 
ATOM     26  CA  PRO A   4      41.860  67.076   8.221  0.00  0.00    +0.000 C 
ATOM     27  CB  PRO A   4      42.733  66.112   7.375  0.00  0.00    +0.000 C 
ATOM     28  CG  PRO A   4      42.127  64.748   7.592  0.00  0.00    +0.000 C 
ATOM     29  CD  PRO A   4      40.644  65.040   7.715  0.00  0.00    +0.000 C 
BRANCH  26  30
ATOM     30  C   PRO A   4      41.541  68.345   7.457  0.00  0.00    +0.000 C 
ATOM     31  N   GLY A   5      40.841  69.225   8.139  0.00  0.00    +0.000 N 
ATOM     32  H   GLY A   5      40.695  69.039   9.152  0.00  0.00    +0.000 HD
ATOM     33  O   PRO A   4      41.924  68.532   6.299  0.00  0.00    +0.000 OA
BRANCH  31  34
ATOM     34  CA  GLY A   5      40.256  70.435   7.591  0.00  0.00    +0.000 C 
BRANCH  34  35
ATOM     35  C   GLY A   5      38.780  70.237   7.369  0.00  0.00    +0.000 C 
ATOM     36  N   TRP A   6      37.968  71.225   7.735  0.00  0.00    +0.000 N 
ATOM     37  H   TRP A   6      38.358  72.025   8.273  0.00  0.00    +0.000 HD
ATOM     38  O   GLY A   5      38.387  69.205   6.826  0.00  0.00    +0.000 OA
BRANCH  36  39
ATOM     39  CA  TRP A   6      36.551  71.219   7.405  0.00  0.00    +0.000 C 
BRANCH  39  40
ATOM     40  C   TRP A   6      36.010  72.584   7.857  0.00  0.00    +0.000 C 
ATOM     41  N   ILE A   7      35.612  72.738   9.113  0.00  0.00    +0.000 N 
ATOM     42  H   ILE A   7      35.606  71.900   9.729  0.00  0.00    +0.000 HD
ATOM     43  O   TRP A   6      35.976  73.520   7.039  0.00  0.00    +0.000 OA
BRANCH  41  44
ATOM     44  CA  ILE A   7      35.182  74.012   9.683  0.00  0.00    +0.000 C 
BRANCH  44  45
ATOM     45  C   ILE A   7      36.347  74.827  10.228  0.00  0.00    +0.000 C 
ATOM     46  O   ILE A   7      36.265  76.008  10.494  0.00  0.00    +0.000 OA
ENDBRANCH  44  45
BRANCH  44  47
ATOM     47  CB  ILE A   7      34.186  73.804  10.848  0.00  0.00    +0.000 C 
ATOM     48  CG2 ILE A   7      33.878  75.102  11.592  0.00  0.00    +0.000 C 
BRANCH  47  49
ATOM     49  CG1 ILE A   7      32.896  73.118  10.397  0.00  0.00    +0.000 C 
ATOM     50  CD1 ILE A   7      32.366  73.686   9.098  0.00  0.00    +0.000 C 
ENDBRANCH  47  49
ENDBRANCH  44  47
ENDBRANCH  41  44
ENDBRANCH  39  40
BRANCH  39  51
ATOM     51  CB  TRP A   6      35.759  70.059   8.006  0.00  0.00    +0.000 C 
BRANCH  51  52
ATOM     52  CG  TRP A   6      34.292  70.227   7.721  0.00  0.00    +0.000 A 
ATOM     53  CD2 TRP A   6      33.207  69.970   8.626  0.00  0.00    +0.000 A 
ATOM     54  CE3 TRP A   6      33.156  69.513   9.950  0.00  0.00    +0.000 A 
ATOM     55  CZ3 TRP A   6      31.914  69.369  10.546  0.00  0.00    +0.000 A 
ATOM     56  CH2 TRP A   6      30.751  69.679   9.834  0.00  0.00    +0.000 A 
ATOM     57  CZ2 TRP A   6      30.784  70.113   8.540  0.00  0.00    +0.000 A 
ATOM     58  CE2 TRP A   6      32.012  70.270   7.915  0.00  0.00    +0.000 A 
ATOM     59  NE1 TRP A   6      32.332  70.687   6.650  0.00  0.00    +0.000 N 
ATOM     60  HE1 TRP A   6      31.660  70.971   5.908  0.00  0.00    +0.000 HD
ATOM     61  CD1 TRP A   6      33.718  70.662   6.537  0.00  0.00    +0.000 A 
ENDBRANCH  51  52
ENDBRANCH  39  51
ENDBRANCH  36  39
ENDBRANCH  34  35
ENDBRANCH  31  34
ENDBRANCH  26  30
ENDBRANCH   9  23
BRANCH  14  62
ATOM     62  N   UNK A   1      35.307  63.196   6.306  0.00  0.00    +0.000 N 
ATOM     63  C   UNK A   1      36.292  62.364   6.052  0.00  0.00    +0.000 A 
ATOM     64  N   UNK A   1      36.448  62.243   4.738  0.00  0.00    +0.000 NA
ATOM     65  C   UNK A   1      35.490  63.033   4.098  0.00  0.00    +0.000 A 
ATOM     66  C   UNK A   1      34.761  63.632   5.111  0.00  0.00    +0.000 A 
BRANCH  65  67
ATOM     67  C   UNK A   1      35.388  63.120   2.602  0.00  0.00    +0.000 C 
BRANCH  67  68
ATOM     68  C   UNK A   1      36.221  64.282   2.015  0.00  0.00    +0.000 C 
BRANCH  68  69
ATOM     69  N   UNK A   1      37.620  64.130   2.393  0.00  0.00    +0.000 N 
ATOM     70  H   UNK A   1      37.860  63.536   3.212  0.00  0.00    +0.000 HD
ATOM     71  C   UNK A   1      38.605  64.733   1.716  0.00  0.00    +0.000 C 
ATOM     72  O   UNK A   1      38.396  65.497   0.757  0.00  0.00    +0.000 OA
BRANCH  71  73
ATOM     73  C   UNK A   1      40.023  64.454   2.223  0.00  0.00    +0.000 C 
BRANCH  73  74
ATOM     74  N   UNK A   1      40.992  64.532   1.119  0.00  0.00    +0.000 NA
ATOM     75  H   UNK A   1      41.850  65.107   1.237  0.00  0.00    +0.000 HD
ENDBRANCH  73  74
BRANCH  73  76
ATOM     76  C   UNK A   1      40.457  65.469   3.285  0.00  0.00    +0.000 C 
BRANCH  76  77
ATOM     77  C   UNK A   1      39.445  65.686   4.360  0.00  0.00    +0.000 A 
ATOM     78  N   UNK A   1      38.777  64.658   5.005  0.00  0.00    +0.000 NA
ATOM     79  C   UNK A   1      37.931  65.200   5.876  0.00  0.00    +0.000 A 
ATOM     80  N   UNK A   1      38.015  66.516   5.831  0.00  0.00    +0.000 NA
ATOM     81  C   UNK A   1      38.961  66.849   4.895  0.00  0.00    +0.000 A 
ENDBRANCH  76  77
ENDBRANCH  73  76
ENDBRANCH  71  73
ENDBRANCH  68  69
BRANCH  68  82
ATOM     82  C   UNK A   1      35.619  65.635   2.391  0.00  0.00    +0.000 C 
ATOM     83  N   UNK A   3      36.421  66.580   2.901  0.00  0.00    +0.000 N 
ATOM     84  H   UNK A   3      37.337  66.310   3.314  0.00  0.00    +0.000 HD
ATOM     85  O   UNK A   1      34.424  65.822   2.138  0.00  0.00    +0.000 OA
BRANCH  83  86
ATOM     86  C   UNK A   3      36.021  67.987   2.883  0.00  0.00    +0.000 C 
BRANCH  86  87
ATOM     87  C   UNK A   3      36.990  68.836   2.046  0.00  0.00    +0.000 C 
ATOM     88  O   UNK A   3      36.854  70.057   2.103  0.00  0.00    +0.000 OA
ATOM     89  N   PRO A   4      37.897  68.214   1.317  0.00  0.00    +0.000 N 
ATOM     90  H   PRO A   4      37.924  67.174   1.302  0.00  0.00    +0.000 HD
BRANCH  89  91
ATOM     91  CA  PRO A   4      38.866  68.979   0.528  0.00  0.00    +0.000 C 
BRANCH  91  92
ATOM     92  C   PRO A   4      38.354  69.097  -0.899  0.00  0.00    +0.000 C 
ATOM     93  O   PRO A   4      37.610  70.025  -1.223  0.00  0.00    +0.000 OA
ENDBRANCH  91  92
ENDBRANCH  89  91
ENDBRANCH  86  87
BRANCH  86  94
ATOM     94  C   UNK A   3      35.890  68.646   4.274  0.00  0.00    +0.000 C 
BRANCH  94  95
ATOM     95  C   UNK A   3      34.852  67.884   5.097  0.00  0.00    +0.000 C 
ATOM     96  O   UNK A   3      35.193  67.317   6.149  0.00  0.00    +0.000 OA
ATOM     97  O   UNK A   3      33.700  67.874   4.609  0.00  0.00    +0.000 OA
ENDBRANCH  94  95
ENDBRANCH  86  94
ENDBRANCH  83  86
ENDBRANCH  68  82
ENDBRANCH  67  68
ENDBRANCH  65  67
ENDBRANCH  14  62
BRANCH   1  98
ATOM     98  N   UNK A   1      36.420  60.633  14.937  0.00  0.00    +0.000 NA
ATOM     99  H   UNK A   1      35.556  60.757  15.502  0.00  0.00    +0.000 HD
ENDBRANCH   1  98
BRANCH   5 100
ATOM    100  C   UNK A   2      40.538  63.540  13.336  0.00  0.00    +0.000 C 
BRANCH 100 101
ATOM    101  C   UNK A   2      40.592  63.458  14.855  0.00  0.00    +0.000 C 
ATOM    102  O   UNK A   2      41.205  64.279  15.564  0.00  0.00    +0.000 OA
ATOM    103  N   UNK A   2      39.910  62.416  15.378  0.00  0.00    +0.000 N 
ATOM    104  H   UNK A   2      39.883  62.276  16.408  0.00  0.00    +0.000 HD
ATOM    105  H   UNK A   2      39.411  61.753  14.750  0.00  0.00    +0.000 HD
ENDBRANCH 100 101
ENDBRANCH   5 100
BRANCH  14 106
ATOM    106  O   UNK A   1      32.592  63.037   7.425  0.00  0.00    +0.000 OA
BRANCH 106 107
ATOM    107  C   UNK A   1      32.049  61.905   7.327  0.00  0.00    +0.000 C 
ATOM    108  O   UNK A   1      30.811  61.747   7.476  0.00  0.00    +0.000 OA
BRANCH 107 109
ATOM    109  C   UNK A   1      32.977  60.719   7.091  0.00  0.00    +0.000 C 
BRANCH 109 110
ATOM    110  C   UNK A   1      32.253  59.582   6.338  0.00  0.00    +0.000 C 
BRANCH 110 111
ATOM    111  C   UNK A   1      32.260  59.948   4.863  0.00  0.00    +0.000 C 
ATOM    112  O   UNK A   1      31.512  60.921   4.607  0.00  0.00    +0.000 OA
ATOM    113  N   UNK A   3      32.944  59.337   3.912  0.00  0.00    +0.000 N 
ATOM    114  C   UNK A   3      33.904  58.237   3.977  0.00  0.00    +0.000 C 
ATOM    115  C   UNK A   3      34.640  58.357   2.649  0.00  0.00    +0.000 C 
ATOM    116  C   UNK A   3      33.605  58.870   1.676  0.00  0.00    +0.000 C 
ATOM    117  C   UNK A   3      32.765  59.832   2.518  0.00  0.00    +0.000 C 
BRANCH 117 118
ATOM    118  C   UNK A   3      31.304  59.778   2.085  0.00  0.00    +0.000 C 
ATOM    119  O   UNK A   3      30.546  58.903   2.528  0.00  0.00    +0.000 OA
ATOM    120  N   PRO A   4      30.912  60.709   1.214  0.00  0.00    +0.000 N 
ATOM    121  H   PRO A   4      31.613  61.274   0.693  0.00  0.00    +0.000 HD
BRANCH 120 122
ATOM    122  CA  PRO A   4      29.472  60.924   1.002  0.00  0.00    +0.000 C 
BRANCH 122 123
ATOM    123  C   PRO A   4      29.014  60.028  -0.141  0.00  0.00    +0.000 C 
ATOM    124  O   PRO A   4      28.751  60.487  -1.265  0.00  0.00    +0.000 OA
ENDBRANCH 122 123
BRANCH 122 125
ATOM    125  CB  PRO A   4      29.187  62.399   0.731  0.00  0.00    +0.000 C 
BRANCH 125 126
ATOM    126  CG  PRO A   4      29.991  63.345   1.604  0.00  0.00    +0.000 A 
ATOM    127  CD2 PRO A   4      30.193  63.087   2.959  0.00  0.00    +0.000 A 
ATOM    128  CE2 PRO A   4      30.920  63.969   3.722  0.00  0.00    +0.000 A 
ATOM    129  CZ  PRO A   4      31.496  65.110   3.153  0.00  0.00    +0.000 A 
ATOM    130  CE1 PRO A   4      31.266  65.383   1.800  0.00  0.00    +0.000 A 
ATOM    131  CD1 PRO A   4      30.544  64.484   1.021  0.00  0.00    +0.000 A 
ENDBRANCH 125 126
ENDBRANCH 122 125
ENDBRANCH 120 122
ENDBRANCH 117 118
ENDBRANCH 110 111
BRANCH 110 132
ATOM    132  N   UNK A   1      32.794  58.290   6.717  0.00  0.00    +0.000 N 
ATOM    133  C   UNK A   1      32.034  57.428   7.418  0.00  0.00    +0.000 C 
ATOM    134  O   UNK A   1      30.841  57.641   7.686  0.00  0.00    +0.000 OA
ATOM    135  H   UNK A   1      33.765  58.031   6.448  0.00  0.00    +0.000 HD
BRANCH 133 136
ATOM    136  C   UNK A   1      32.693  56.155   7.932  0.00  0.00    +0.000 C 
BRANCH 136 137
ATOM    137  N   UNK A   1      34.010  55.871   7.343  0.00  0.00    +0.000 NA
ATOM    138  H   UNK A   1      34.881  56.215   7.794  0.00  0.00    +0.000 HD
ENDBRANCH 136 137
BRANCH 136 139
ATOM    139  C   UNK A   1      32.841  56.223   9.462  0.00  0.00    +0.000 C 
ATOM    140  C   UNK A   1      33.054  54.803  10.008  0.00  0.00    +0.000 C 
BRANCH 139 141
ATOM    141  C   UNK A   1      33.900  57.191   9.978  0.00  0.00    +0.000 C 
ATOM    142  C   UNK A   1      33.749  57.555  11.442  0.00  0.00    +0.000 C 
ENDBRANCH 139 141
ENDBRANCH 136 139
ENDBRANCH 133 136
ENDBRANCH 110 132
ENDBRANCH 109 110
ENDBRANCH 107 109
ENDBRANCH 106 107
ENDBRANCH  14 106
TORSDOF 45
REMARK  Name = ../refined-set-2016/3d4z/3d4z_pocket.pdb
REMARK  146 active torsions:
REMARK  status: ('A' for Active; 'I' for Inactive)
REMARK    1  A    between atoms: _1  and  _3
REMARK    2  A    between atoms: _14  and  _17
REMARK    3  A    between atoms: _17  and  _18
REMARK    4  A    between atoms: _25  and  _26
REMARK    5  A    between atoms: _33  and  _34
REMARK    6  A    between atoms: _39  and  _41
REMARK    7  A    between atoms: _41  and  _42
REMARK    8  A    between atoms: _44  and  _46
REMARK    9  A    between atoms: _46  and  _47
REMARK   10  A    between atoms: _46  and  _49
REMARK   11  A    between atoms: _49  and  _50
REMARK   12  A    between atoms: _60  and  _62
REMARK   13  A    between atoms: _62  and  _63
REMARK   14  A    between atoms: _62  and  _65
REMARK   15  A    between atoms: _65  and  _66
REMARK   16  A    between atoms: _69  and  _71
REMARK   17  A    between atoms: _71  and  _72
REMARK   18  A    between atoms: _71  and  _74
REMARK   19  A    between atoms: _74  and  _75
REMARK   20  A    between atoms: _80  and  _81
REMARK   21  A    between atoms: _83  and  _85
REMARK   22  A    between atoms: _85  and  _86
REMARK   23  A    between atoms: _85  and  _88
REMARK   24  A    between atoms: _88  and  _89
REMARK   25  A    between atoms: _89  and  _90
REMARK   26  A    between atoms: _92  and  _94
REMARK   27  A    between atoms: _94  and  _95
REMARK   28  A    between atoms: _94  and  _97
REMARK   29  A    between atoms: _97  and  _98
REMARK   30  A    between atoms: _101  and  _103
REMARK   31  A    between atoms: _103  and  _104
REMARK   32  A    between atoms: _103  and  _106
REMARK   33  A    between atoms: _106  and  _107
REMARK   34  A    between atoms: _107  and  _109
REMARK   35  A    between atoms: _109  and  ZN_399
REMARK   36  A    between atoms: _111  and  _112
REMARK   37  A    between atoms: _117  and  _119
REMARK   38  A    between atoms: _119  and  _120
REMARK   39  A    between atoms: _119  and  _122
REMARK   40  A    between atoms: _122  and  _123
REMARK   41  A    between atoms: _129  and  _131
REMARK   42  A    between atoms: _131  and  _132
REMARK   43  A    between atoms: _131  and  _134
REMARK   44  A    between atoms: _134  and  _135
REMARK   45  A    between atoms: _135  and  _136
REMARK   46  A    between atoms: _136  and  _137
REMARK   47  A    between atoms: _146  and  _148
REMARK   48  A    between atoms: _148  and  _149
REMARK   49  A    between atoms: _148  and  _151
REMARK   50  A    between atoms: _151  and  _152
REMARK   51  A    between atoms: _157  and  _158
REMARK   52  A    between atoms: _160  and  _162
REMARK   53  A    between atoms: _162  and  _163
REMARK   54  A    between atoms: _162  and  _165
REMARK   55  A    between atoms: _165  and  _166
REMARK   56  A    between atoms: _168  and  _170
REMARK   57  A    between atoms: _170  and  _171
REMARK   58  A    between atoms: _170  and  _173
REMARK   59  A    between atoms: _173  and  _174
REMARK   60  A    between atoms: _179  and  _180
REMARK   61  A    between atoms: _182  and  _184
REMARK   62  A    between atoms: _184  and  _185
REMARK   63  A    between atoms: _184  and  _187
REMARK   64  A    between atoms: _187  and  _188
REMARK   65  A    between atoms: _191  and  _193
REMARK   66  A    between atoms: _193  and  _194
REMARK   67  A    between atoms: _193  and  _196
REMARK   68  A    between atoms: _196  and  _197
REMARK   69  A    between atoms: _200  and  _202
REMARK   70  A    between atoms: _202  and  _203
REMARK   71  A    between atoms: _202  and  _205
REMARK   72  A    between atoms: _205  and  _206
REMARK   73  A    between atoms: _209  and  _211
REMARK   74  A    between atoms: _211  and  _212
REMARK   75  A    between atoms: _211  and  _214
REMARK   76  A    between atoms: _214  and  _215
REMARK   77  A    between atoms: _221  and  _223
REMARK   78  A    between atoms: _223  and  _224
REMARK   79  A    between atoms: _223  and  _226
REMARK   80  A    between atoms: _226  and  _227
REMARK   81  A    between atoms: _232  and  _233
REMARK   82  A    between atoms: _235  and  _237
REMARK   83  A    between atoms: _237  and  _238
REMARK   84  A    between atoms: _237  and  _240
REMARK   85  A    between atoms: _240  and  _241
REMARK   86  A    between atoms: _244  and  _246
REMARK   87  A    between atoms: _246  and  _247
REMARK   88  A    between atoms: _246  and  _249
REMARK   89  A    between atoms: _249  and  _250
REMARK   90  A    between atoms: _260  and  _262
REMARK   91  A    between atoms: _262  and  _263
REMARK   92  A    between atoms: _262  and  _265
REMARK   93  A    between atoms: _265  and  _266
REMARK   94  A    between atoms: _271  and  _273
REMARK   95  A    between atoms: _273  and  _274
REMARK   96  A    between atoms: _273  and  _276
REMARK   97  A    between atoms: _276  and  _277
REMARK   98  A    between atoms: _281  and  ZN_399
REMARK   99  A    between atoms: _282  and  _284
REMARK  100  A    between atoms: _284  and  _285
REMARK  101  A    between atoms: _284  and  _287
REMARK  102  A    between atoms: _287  and  _288
REMARK  103  A    between atoms: _291  and  _293
REMARK  104  A    between atoms: _293  and  _294
REMARK  105  A    between atoms: _296  and  _298
REMARK  106  A    between atoms: _298  and  _299
REMARK  107  A    between atoms: _298  and  _301
REMARK  108  A    between atoms: _301  and  _302
REMARK  109  A    between atoms: _305  and  _307
REMARK  110  A    between atoms: _307  and  _308
REMARK  111  A    between atoms: _307  and  _310
REMARK  112  A    between atoms: _310  and  _311
REMARK  113  A    between atoms: _314  and  _316
REMARK  114  A    between atoms: _316  and  _317
REMARK  115  A    between atoms: _320  and  _322
REMARK  116  A    between atoms: _322  and  _323
REMARK  117  A    between atoms: _326  and  _328
REMARK  118  A    between atoms: _328  and  _329
REMARK  119  A    between atoms: _328  and  _331
REMARK  120  A    between atoms: _331  and  _332
REMARK  121  A    between atoms: _337  and  _338
REMARK  122  A    between atoms: _340  and  _342
REMARK  123  A    between atoms: _342  and  _343
REMARK  124  A    between atoms: _342  and  _345
REMARK  125  A    between atoms: _345  and  _346
REMARK  126  A    between atoms: _349  and  _351
REMARK  127  A    between atoms: _351  and  _352
REMARK  128  A    between atoms: _351  and  _354
REMARK  129  A    between atoms: _354  and  _355
REMARK  130  A    between atoms: _358  and  _360
REMARK  131  A    between atoms: _360  and  _361
REMARK  132  A    between atoms: _360  and  _363
REMARK  133  A    between atoms: _363  and  _364
REMARK  134  A    between atoms: _364  and  _365
REMARK  135  A    between atoms: _368  and  _370
REMARK  136  A    between atoms: _370  and  _371
REMARK  137  A    between atoms: _370  and  _373
REMARK  138  A    between atoms: _373  and  _374
REMARK  139  A    between atoms: _374  and  _375
REMARK  140  A    between atoms: _375  and  _376
REMARK  141  A    between atoms: _385  and  _387
REMARK  142  A    between atoms: _387  and  _388
REMARK  143  A    between atoms: _390  and  _392
REMARK  144  A    between atoms: _392  and  _393
REMARK  145  A    between atoms: _392  and  _395
REMARK  146  A    between atoms: _395  and  _396
REMARK                            x       y       z     vdW  Elec       q    Type
REMARK                         _______ _______ _______ _____ _____    ______ ____
ROOT
ATOM      1  CG  TYR A   1      40.049  70.629  13.002  0.00  0.00    -0.020 A 
ATOM      2  CD2 TYR A   1      38.968  70.880  13.870  0.00  0.00    -0.001 A 
ATOM      3  CE2 TYR A   1      37.645  71.010  13.409  0.00  0.00    +0.036 A 
ATOM      4  CZ  TYR A   1      37.399  70.848  12.054  0.00  0.00    +0.134 A 
ATOM      5  CE1 TYR A   1      38.452  70.580  11.170  0.00  0.00    +0.036 A 
ATOM      6  CD1 TYR A   1      39.746  70.486  11.638  0.00  0.00    -0.001 A 
ENDROOT
BRANCH   4   7
ATOM      7  OH  TYR A   1      36.140  70.938  11.545  0.00  0.00    -0.506 OA
ATOM      8  HH  TYR A   1      35.502  71.129  12.277  0.00  0.00    +0.292 HD
ENDBRANCH   4   7
BRANCH   1   9
ATOM      9  CB  TYR A   1      41.465  70.463  13.451  0.00  0.00    +0.051 C 
BRANCH   9  10
ATOM     10  CA  TYR A   1      42.075  71.423  14.439  0.00  0.00    +0.137 C 
BRANCH  10  11
ATOM     11  N   TYR A   1      42.584  72.588  13.713  0.00  0.00    -0.239 NA
ATOM     12  H   TYR A   1      42.559  72.639  12.675  0.00  0.00    +0.142 HD
ENDBRANCH  10  11
BRANCH  10  13
ATOM     13  C   TYR A   1      43.163  70.672  15.185  0.00  0.00    +0.224 C 
ATOM     14  O   TYR A   1      42.936  70.136  16.261  0.00  0.00    -0.287 OA
ENDBRANCH  10  13
ENDBRANCH   9  10
ENDBRANCH   1   9
TORSDOF 5
REMARK  Name = ../refined-set-2016/3d4z/3d4z_pocket.pdb
REMARK  146 active torsions:
REMARK  status: ('A' for Active; 'I' for Inactive)
REMARK    1  A    between atoms: _1  and  _3
REMARK    2  A    between atoms: _14  and  _17
REMARK    3  A    between atoms: _17  and  _18
REMARK    4  A    between atoms: _25  and  _26
REMARK    5  A    between atoms: _33  and  _34
REMARK    6  A    between atoms: _39  and  _41
REMARK    7  A    between atoms: _41  and  _42
REMARK    8  A    between atoms: _44  and  _46
REMARK    9  A    between atoms: _46  and  _47
REMARK   10  A    between atoms: _46  and  _49
REMARK   11  A    between atoms: _49  and  _50
REMARK   12  A    between atoms: _60  and  _62
REMARK   13  A    between atoms: _62  and  _63
REMARK   14  A    between atoms: _62  and  _65
REMARK   15  A    between atoms: _65  and  _66
REMARK   16  A    between atoms: _69  and  _71
REMARK   17  A    between atoms: _71  and  _72
REMARK   18  A    between atoms: _71  and  _74
REMARK   19  A    between atoms: _74  and  _75
REMARK   20  A    between atoms: _80  and  _81
REMARK   21  A    between atoms: _83  and  _85
REMARK   22  A    between atoms: _85  and  _86
REMARK   23  A    between atoms: _85  and  _88
REMARK   24  A    between atoms: _88  and  _89
REMARK   25  A    between atoms: _89  and  _90
REMARK   26  A    between atoms: _92  and  _94
REMARK   27  A    between atoms: _94  and  _95
REMARK   28  A    between atoms: _94  and  _97
REMARK   29  A    between atoms: _97  and  _98
REMARK   30  A    between atoms: _101  and  _103
REMARK   31  A    between atoms: _103  and  _104
REMARK   32  A    between atoms: _103  and  _106
REMARK   33  A    between atoms: _106  and  _107
REMARK   34  A    between atoms: _107  and  _109
REMARK   35  A    between atoms: _109  and  ZN_399
REMARK   36  A    between atoms: _111  and  _112
REMARK   37  A    between atoms: _117  and  _119
REMARK   38  A    between atoms: _119  and  _120
REMARK   39  A    between atoms: _119  and  _122
REMARK   40  A    between atoms: _122  and  _123
REMARK   41  A    between atoms: _129  and  _131
REMARK   42  A    between atoms: _131  and  _132
REMARK   43  A    between atoms: _131  and  _134
REMARK   44  A    between atoms: _134  and  _135
REMARK   45  A    between atoms: _135  and  _136
REMARK   46  A    between atoms: _136  and  _137
REMARK   47  A    between atoms: _146  and  _148
REMARK   48  A    between atoms: _148  and  _149
REMARK   49  A    between atoms: _148  and  _151
REMARK   50  A    between atoms: _151  and  _152
REMARK   51  A    between atoms: _157  and  _158
REMARK   52  A    between atoms: _160  and  _162
REMARK   53  A    between atoms: _162  and  _163
REMARK   54  A    between atoms: _162  and  _165
REMARK   55  A    between atoms: _165  and  _166
REMARK   56  A    between atoms: _168  and  _170
REMARK   57  A    between atoms: _170  and  _171
REMARK   58  A    between atoms: _170  and  _173
REMARK   59  A    between atoms: _173  and  _174
REMARK   60  A    between atoms: _179  and  _180
REMARK   61  A    between atoms: _182  and  _184
REMARK   62  A    between atoms: _184  and  _185
REMARK   63  A    between atoms: _184  and  _187
REMARK   64  A    between atoms: _187  and  _188
REMARK   65  A    between atoms: _191  and  _193
REMARK   66  A    between atoms: _193  and  _194
REMARK   67  A    between atoms: _193  and  _196
REMARK   68  A    between atoms: _196  and  _197
REMARK   69  A    between atoms: _200  and  _202
REMARK   70  A    between atoms: _202  and  _203
REMARK   71  A    between atoms: _202  and  _205
REMARK   72  A    between atoms: _205  and  _206
REMARK   73  A    between atoms: _209  and  _211
REMARK   74  A    between atoms: _211  and  _212
REMARK   75  A    between atoms: _211  and  _214
REMARK   76  A    between atoms: _214  and  _215
REMARK   77  A    between atoms: _221  and  _223
REMARK   78  A    between atoms: _223  and  _224
REMARK   79  A    between atoms: _223  and  _226
REMARK   80  A    between atoms: _226  and  _227
REMARK   81  A    between atoms: _232  and  _233
REMARK   82  A    between atoms: _235  and  _237
REMARK   83  A    between atoms: _237  and  _238
REMARK   84  A    between atoms: _237  and  _240
REMARK   85  A    between atoms: _240  and  _241
REMARK   86  A    between atoms: _244  and  _246
REMARK   87  A    between atoms: _246  and  _247
REMARK   88  A    between atoms: _246  and  _249
REMARK   89  A    between atoms: _249  and  _250
REMARK   90  A    between atoms: _260  and  _262
REMARK   91  A    between atoms: _262  and  _263
REMARK   92  A    between atoms: _262  and  _265
REMARK   93  A    between atoms: _265  and  _266
REMARK   94  A    between atoms: _271  and  _273
REMARK   95  A    between atoms: _273  and  _274
REMARK   96  A    between atoms: _273  and  _276
REMARK   97  A    between atoms: _276  and  _277
REMARK   98  A    between atoms: _281  and  ZN_399
REMARK   99  A    between atoms: _282  and  _284
REMARK  100  A    between atoms: _284  and  _285
REMARK  101  A    between atoms: _284  and  _287
REMARK  102  A    between atoms: _287  and  _288
REMARK  103  A    between atoms: _291  and  _293
REMARK  104  A    between atoms: _293  and  _294
REMARK  105  A    between atoms: _296  and  _298
REMARK  106  A    between atoms: _298  and  _299
REMARK  107  A    between atoms: _298  and  _301
REMARK  108  A    between atoms: _301  and  _302
REMARK  109  A    between atoms: _305  and  _307
REMARK  110  A    between atoms: _307  and  _308
REMARK  111  A    between atoms: _307  and  _310
REMARK  112  A    between atoms: _310  and  _311
REMARK  113  A    between atoms: _314  and  _316
REMARK  114  A    between atoms: _316  and  _317
REMARK  115  A    between atoms: _320  and  _322
REMARK  116  A    between atoms: _322  and  _323
REMARK  117  A    between atoms: _326  and  _328
REMARK  118  A    between atoms: _328  and  _329
REMARK  119  A    between atoms: _328  and  _331
REMARK  120  A    between atoms: _331  and  _332
REMARK  121  A    between atoms: _337  and  _338
REMARK  122  A    between atoms: _340  and  _342
REMARK  123  A    between atoms: _342  and  _343
REMARK  124  A    between atoms: _342  and  _345
REMARK  125  A    between atoms: _345  and  _346
REMARK  126  A    between atoms: _349  and  _351
REMARK  127  A    between atoms: _351  and  _352
REMARK  128  A    between atoms: _351  and  _354
REMARK  129  A    between atoms: _354  and  _355
REMARK  130  A    between atoms: _358  and  _360
REMARK  131  A    between atoms: _360  and  _361
REMARK  132  A    between atoms: _360  and  _363
REMARK  133  A    between atoms: _363  and  _364
REMARK  134  A    between atoms: _364  and  _365
REMARK  135  A    between atoms: _368  and  _370
REMARK  136  A    between atoms: _370  and  _371
REMARK  137  A    between atoms: _370  and  _373
REMARK  138  A    between atoms: _373  and  _374
REMARK  139  A    between atoms: _374  and  _375
REMARK  140  A    between atoms: _375  and  _376
REMARK  141  A    between atoms: _385  and  _387
REMARK  142  A    between atoms: _387  and  _388
REMARK  143  A    between atoms: _390  and  _392
REMARK  144  A    between atoms: _392  and  _393
REMARK  145  A    between atoms: _392  and  _395
REMARK  146  A    between atoms: _395  and  _396
REMARK                            x       y       z     vdW  Elec       q    Type
REMARK                         _______ _______ _______ _____ _____    ______ ____
ROOT
ATOM      1  CA  MET A   1      39.852  59.250   4.583  0.00  0.00    +0.134 C 
ENDROOT
BRANCH   1   2
ATOM      2  N   MET A   1      40.967  60.126   4.958  0.00  0.00    -0.239 NA
ATOM      3  H   MET A   1      40.732  61.027   5.422  0.00  0.00    +0.142 HD
ENDBRANCH   1   2
BRANCH   1   4
ATOM      4  C   MET A   1      39.247  59.932   3.358  0.00  0.00    +0.224 C 
ATOM      5  O   MET A   1      38.514  60.896   3.492  0.00  0.00    -0.287 OA
ENDBRANCH   1   4
BRANCH   1   6
ATOM      6  CB  MET A   1      38.857  59.186   5.757  0.00  0.00    +0.037 C 
BRANCH   6   7
ATOM      7  CG  MET A   1      37.584  58.417   5.447  0.00  0.00    +0.059 C 
BRANCH   7   8
ATOM      8  SD  MET A   1      36.423  58.502   6.842  0.00  0.00    -0.139 S 
ATOM      9  CE  MET A   1      37.414  57.741   8.147  0.00  0.00    +0.069 C 
ENDBRANCH   7   8
ENDBRANCH   6   7
ENDBRANCH   1   6
TORSDOF 5
REMARK  Name = ../refined-set-2016/3d4z/3d4z_pocket.pdb
REMARK  146 active torsions:
REMARK  status: ('A' for Active; 'I' for Inactive)
REMARK    1  A    between atoms: _1  and  _3
REMARK    2  A    between atoms: _14  and  _17
REMARK    3  A    between atoms: _17  and  _18
REMARK    4  A    between atoms: _25  and  _26
REMARK    5  A    between atoms: _33  and  _34
REMARK    6  A    between atoms: _39  and  _41
REMARK    7  A    between atoms: _41  and  _42
REMARK    8  A    between atoms: _44  and  _46
REMARK    9  A    between atoms: _46  and  _47
REMARK   10  A    between atoms: _46  and  _49
REMARK   11  A    between atoms: _49  and  _50
REMARK   12  A    between atoms: _60  and  _62
REMARK   13  A    between atoms: _62  and  _63
REMARK   14  A    between atoms: _62  and  _65
REMARK   15  A    between atoms: _65  and  _66
REMARK   16  A    between atoms: _69  and  _71
REMARK   17  A    between atoms: _71  and  _72
REMARK   18  A    between atoms: _71  and  _74
REMARK   19  A    between atoms: _74  and  _75
REMARK   20  A    between atoms: _80  and  _81
REMARK   21  A    between atoms: _83  and  _85
REMARK   22  A    between atoms: _85  and  _86
REMARK   23  A    between atoms: _85  and  _88
REMARK   24  A    between atoms: _88  and  _89
REMARK   25  A    between atoms: _89  and  _90
REMARK   26  A    between atoms: _92  and  _94
REMARK   27  A    between atoms: _94  and  _95
REMARK   28  A    between atoms: _94  and  _97
REMARK   29  A    between atoms: _97  and  _98
REMARK   30  A    between atoms: _101  and  _103
REMARK   31  A    between atoms: _103  and  _104
REMARK   32  A    between atoms: _103  and  _106
REMARK   33  A    between atoms: _106  and  _107
REMARK   34  A    between atoms: _107  and  _109
REMARK   35  A    between atoms: _109  and  ZN_399
REMARK   36  A    between atoms: _111  and  _112
REMARK   37  A    between atoms: _117  and  _119
REMARK   38  A    between atoms: _119  and  _120
REMARK   39  A    between atoms: _119  and  _122
REMARK   40  A    between atoms: _122  and  _123
REMARK   41  A    between atoms: _129  and  _131
REMARK   42  A    between atoms: _131  and  _132
REMARK   43  A    between atoms: _131  and  _134
REMARK   44  A    between atoms: _134  and  _135
REMARK   45  A    between atoms: _135  and  _136
REMARK   46  A    between atoms: _136  and  _137
REMARK   47  A    between atoms: _146  and  _148
REMARK   48  A    between atoms: _148  and  _149
REMARK   49  A    between atoms: _148  and  _151
REMARK   50  A    between atoms: _151  and  _152
REMARK   51  A    between atoms: _157  and  _158
REMARK   52  A    between atoms: _160  and  _162
REMARK   53  A    between atoms: _162  and  _163
REMARK   54  A    between atoms: _162  and  _165
REMARK   55  A    between atoms: _165  and  _166
REMARK   56  A    between atoms: _168  and  _170
REMARK   57  A    between atoms: _170  and  _171
REMARK   58  A    between atoms: _170  and  _173
REMARK   59  A    between atoms: _173  and  _174
REMARK   60  A    between atoms: _179  and  _180
REMARK   61  A    between atoms: _182  and  _184
REMARK   62  A    between atoms: _184  and  _185
REMARK   63  A    between atoms: _184  and  _187
REMARK   64  A    between atoms: _187  and  _188
REMARK   65  A    between atoms: _191  and  _193
REMARK   66  A    between atoms: _193  and  _194
REMARK   67  A    between atoms: _193  and  _196
REMARK   68  A    between atoms: _196  and  _197
REMARK   69  A    between atoms: _200  and  _202
REMARK   70  A    between atoms: _202  and  _203
REMARK   71  A    between atoms: _202  and  _205
REMARK   72  A    between atoms: _205  and  _206
REMARK   73  A    between atoms: _209  and  _211
REMARK   74  A    between atoms: _211  and  _212
REMARK   75  A    between atoms: _211  and  _214
REMARK   76  A    between atoms: _214  and  _215
REMARK   77  A    between atoms: _221  and  _223
REMARK   78  A    between atoms: _223  and  _224
REMARK   79  A    between atoms: _223  and  _226
REMARK   80  A    between atoms: _226  and  _227
REMARK   81  A    between atoms: _232  and  _233
REMARK   82  A    between atoms: _235  and  _237
REMARK   83  A    between atoms: _237  and  _238
REMARK   84  A    between atoms: _237  and  _240
REMARK   85  A    between atoms: _240  and  _241
REMARK   86  A    between atoms: _244  and  _246
REMARK   87  A    between atoms: _246  and  _247
REMARK   88  A    between atoms: _246  and  _249
REMARK   89  A    between atoms: _249  and  _250
REMARK   90  A    between atoms: _260  and  _262
REMARK   91  A    between atoms: _262  and  _263
REMARK   92  A    between atoms: _262  and  _265
REMARK   93  A    between atoms: _265  and  _266
REMARK   94  A    between atoms: _271  and  _273
REMARK   95  A    between atoms: _273  and  _274
REMARK   96  A    between atoms: _273  and  _276
REMARK   97  A    between atoms: _276  and  _277
REMARK   98  A    between atoms: _281  and  ZN_399
REMARK   99  A    between atoms: _282  and  _284
REMARK  100  A    between atoms: _284  and  _285
REMARK  101  A    between atoms: _284  and  _287
REMARK  102  A    between atoms: _287  and  _288
REMARK  103  A    between atoms: _291  and  _293
REMARK  104  A    between atoms: _293  and  _294
REMARK  105  A    between atoms: _296  and  _298
REMARK  106  A    between atoms: _298  and  _299
REMARK  107  A    between atoms: _298  and  _301
REMARK  108  A    between atoms: _301  and  _302
REMARK  109  A    between atoms: _305  and  _307
REMARK  110  A    between atoms: _307  and  _308
REMARK  111  A    between atoms: _307  and  _310
REMARK  112  A    between atoms: _310  and  _311
REMARK  113  A    between atoms: _314  and  _316
REMARK  114  A    between atoms: _316  and  _317
REMARK  115  A    between atoms: _320  and  _322
REMARK  116  A    between atoms: _322  and  _323
REMARK  117  A    between atoms: _326  and  _328
REMARK  118  A    between atoms: _328  and  _329
REMARK  119  A    between atoms: _328  and  _331
REMARK  120  A    between atoms: _331  and  _332
REMARK  121  A    between atoms: _337  and  _338
REMARK  122  A    between atoms: _340  and  _342
REMARK  123  A    between atoms: _342  and  _343
REMARK  124  A    between atoms: _342  and  _345
REMARK  125  A    between atoms: _345  and  _346
REMARK  126  A    between atoms: _349  and  _351
REMARK  127  A    between atoms: _351  and  _352
REMARK  128  A    between atoms: _351  and  _354
REMARK  129  A    between atoms: _354  and  _355
REMARK  130  A    between atoms: _358  and  _360
REMARK  131  A    between atoms: _360  and  _361
REMARK  132  A    between atoms: _360  and  _363
REMARK  133  A    between atoms: _363  and  _364
REMARK  134  A    between atoms: _364  and  _365
REMARK  135  A    between atoms: _368  and  _370
REMARK  136  A    between atoms: _370  and  _371
REMARK  137  A    between atoms: _370  and  _373
REMARK  138  A    between atoms: _373  and  _374
REMARK  139  A    between atoms: _374  and  _375
REMARK  140  A    between atoms: _375  and  _376
REMARK  141  A    between atoms: _385  and  _387
REMARK  142  A    between atoms: _387  and  _388
REMARK  143  A    between atoms: _390  and  _392
REMARK  144  A    between atoms: _392  and  _393
REMARK  145  A    between atoms: _392  and  _395
REMARK  146  A    between atoms: _395  and  _396
REMARK                            x       y       z     vdW  Elec       q    Type
REMARK                         _______ _______ _______ _____ _____    ______ ____
ROOT
ATOM      1  NE  ARG A   1      28.638  61.048   5.889  0.00  0.00    -0.265 N 
ATOM      2  CZ  ARG A   1      27.779  61.788   6.584  0.00  0.00    +0.342 C 
ATOM      3  NH2 ARG A   1      28.196  62.586   7.563  0.00  0.00    -0.292 N 
ATOM      4 HH21 ARG A   1      27.510  63.158   8.096  0.00  0.00    +0.255 HD
ATOM      5 HH22 ARG A   1      29.208  62.638   7.796  0.00  0.00    +0.255 HD
ATOM      6  NH1 ARG A   1      26.480  61.698   6.314  0.00  0.00    -0.292 N 
ATOM      7 HH11 ARG A   1      25.797  62.271   6.849  0.00  0.00    +0.255 HD
ATOM      8 HH12 ARG A   1      26.147  61.055   5.567  0.00  0.00    +0.255 HD
ATOM      9  HE  ARG A   1      29.639  61.104   6.167  0.00  0.00    +0.259 HD
ENDROOT
BRANCH   1  10
ATOM     10  CD  ARG A   1      28.313  60.168   4.777  0.00  0.00    +0.174 C 
BRANCH  10  11
ATOM     11  CG  ARG A   1      28.012  58.723   5.112  0.00  0.00    +0.045 C 
BRANCH  11  12
ATOM     12  CB  ARG A   1      27.835  57.972   3.785  0.00  0.00    +0.029 C 
BRANCH  12  13
ATOM     13  CA  ARG A   1      27.242  56.588   4.016  0.00  0.00    +0.133 C 
BRANCH  13  14
ATOM     14  N   ARG A   1      28.232  55.670   4.584  0.00  0.00    -0.239 NA
ATOM     15  H   ARG A   1      29.249  55.786   4.398  0.00  0.00    +0.142 HD
ENDBRANCH  13  14
BRANCH  13  16
ATOM     16  C   ARG A   1      26.707  56.043   2.697  0.00  0.00    +0.224 C 
ATOM     17  O   ARG A   1      27.229  56.316   1.618  0.00  0.00    -0.287 OA
ENDBRANCH  13  16
ENDBRANCH  12  13
ENDBRANCH  11  12
ENDBRANCH  10  11
ENDBRANCH   1  10
TORSDOF 6
REMARK  Name = ../refined-set-2016/3d4z/3d4z_pocket.pdb
REMARK  146 active torsions:
REMARK  status: ('A' for Active; 'I' for Inactive)
REMARK    1  A    between atoms: _1  and  _3
REMARK    2  A    between atoms: _14  and  _17
REMARK    3  A    between atoms: _17  and  _18
REMARK    4  A    between atoms: _25  and  _26
REMARK    5  A    between atoms: _33  and  _34
REMARK    6  A    between atoms: _39  and  _41
REMARK    7  A    between atoms: _41  and  _42
REMARK    8  A    between atoms: _44  and  _46
REMARK    9  A    between atoms: _46  and  _47
REMARK   10  A    between atoms: _46  and  _49
REMARK   11  A    between atoms: _49  and  _50
REMARK   12  A    between atoms: _60  and  _62
REMARK   13  A    between atoms: _62  and  _63
REMARK   14  A    between atoms: _62  and  _65
REMARK   15  A    between atoms: _65  and  _66
REMARK   16  A    between atoms: _69  and  _71
REMARK   17  A    between atoms: _71  and  _72
REMARK   18  A    between atoms: _71  and  _74
REMARK   19  A    between atoms: _74  and  _75
REMARK   20  A    between atoms: _80  and  _81
REMARK   21  A    between atoms: _83  and  _85
REMARK   22  A    between atoms: _85  and  _86
REMARK   23  A    between atoms: _85  and  _88
REMARK   24  A    between atoms: _88  and  _89
REMARK   25  A    between atoms: _89  and  _90
REMARK   26  A    between atoms: _92  and  _94
REMARK   27  A    between atoms: _94  and  _95
REMARK   28  A    between atoms: _94  and  _97
REMARK   29  A    between atoms: _97  and  _98
REMARK   30  A    between atoms: _101  and  _103
REMARK   31  A    between atoms: _103  and  _104
REMARK   32  A    between atoms: _103  and  _106
REMARK   33  A    between atoms: _106  and  _107
REMARK   34  A    between atoms: _107  and  _109
REMARK   35  A    between atoms: _109  and  ZN_399
REMARK   36  A    between atoms: _111  and  _112
REMARK   37  A    between atoms: _117  and  _119
REMARK   38  A    between atoms: _119  and  _120
REMARK   39  A    between atoms: _119  and  _122
REMARK   40  A    between atoms: _122  and  _123
REMARK   41  A    between atoms: _129  and  _131
REMARK   42  A    between atoms: _131  and  _132
REMARK   43  A    between atoms: _131  and  _134
REMARK   44  A    between atoms: _134  and  _135
REMARK   45  A    between atoms: _135  and  _136
REMARK   46  A    between atoms: _136  and  _137
REMARK   47  A    between atoms: _146  and  _148
REMARK   48  A    between atoms: _148  and  _149
REMARK   49  A    between atoms: _148  and  _151
REMARK   50  A    between atoms: _151  and  _152
REMARK   51  A    between atoms: _157  and  _158
REMARK   52  A    between atoms: _160  and  _162
REMARK   53  A    between atoms: _162  and  _163
REMARK   54  A    between atoms: _162  and  _165
REMARK   55  A    between atoms: _165  and  _166
REMARK   56  A    between atoms: _168  and  _170
REMARK   57  A    between atoms: _170  and  _171
REMARK   58  A    between atoms: _170  and  _173
REMARK   59  A    between atoms: _173  and  _174
REMARK   60  A    between atoms: _179  and  _180
REMARK   61  A    between atoms: _182  and  _184
REMARK   62  A    between atoms: _184  and  _185
REMARK   63  A    between atoms: _184  and  _187
REMARK   64  A    between atoms: _187  and  _188
REMARK   65  A    between atoms: _191  and  _193
REMARK   66  A    between atoms: _193  and  _194
REMARK   67  A    between atoms: _193  and  _196
REMARK   68  A    between atoms: _196  and  _197
REMARK   69  A    between atoms: _200  and  _202
REMARK   70  A    between atoms: _202  and  _203
REMARK   71  A    between atoms: _202  and  _205
REMARK   72  A    between atoms: _205  and  _206
REMARK   73  A    between atoms: _209  and  _211
REMARK   74  A    between atoms: _211  and  _212
REMARK   75  A    between atoms: _211  and  _214
REMARK   76  A    between atoms: _214  and  _215
REMARK   77  A    between atoms: _221  and  _223
REMARK   78  A    between atoms: _223  and  _224
REMARK   79  A    between atoms: _223  and  _226
REMARK   80  A    between atoms: _226  and  _227
REMARK   81  A    between atoms: _232  and  _233
REMARK   82  A    between atoms: _235  and  _237
REMARK   83  A    between atoms: _237  and  _238
REMARK   84  A    between atoms: _237  and  _240
REMARK   85  A    between atoms: _240  and  _241
REMARK   86  A    between atoms: _244  and  _246
REMARK   87  A    between atoms: _246  and  _247
REMARK   88  A    between atoms: _246  and  _249
REMARK   89  A    between atoms: _249  and  _250
REMARK   90  A    between atoms: _260  and  _262
REMARK   91  A    between atoms: _262  and  _263
REMARK   92  A    between atoms: _262  and  _265
REMARK   93  A    between atoms: _265  and  _266
REMARK   94  A    between atoms: _271  and  _273
REMARK   95  A    between atoms: _273  and  _274
REMARK   96  A    between atoms: _273  and  _276
REMARK   97  A    between atoms: _276  and  _277
REMARK   98  A    between atoms: _281  and  ZN_399
REMARK   99  A    between atoms: _282  and  _284
REMARK  100  A    between atoms: _284  and  _285
REMARK  101  A    between atoms: _284  and  _287
REMARK  102  A    between atoms: _287  and  _288
REMARK  103  A    between atoms: _291  and  _293
REMARK  104  A    between atoms: _293  and  _294
REMARK  105  A    between atoms: _296  and  _298
REMARK  106  A    between atoms: _298  and  _299
REMARK  107  A    between atoms: _298  and  _301
REMARK  108  A    between atoms: _301  and  _302
REMARK  109  A    between atoms: _305  and  _307
REMARK  110  A    between atoms: _307  and  _308
REMARK  111  A    between atoms: _307  and  _310
REMARK  112  A    between atoms: _310  and  _311
REMARK  113  A    between atoms: _314  and  _316
REMARK  114  A    between atoms: _316  and  _317
REMARK  115  A    between atoms: _320  and  _322
REMARK  116  A    between atoms: _322  and  _323
REMARK  117  A    between atoms: _326  and  _328
REMARK  118  A    between atoms: _328  and  _329
REMARK  119  A    between atoms: _328  and  _331
REMARK  120  A    between atoms: _331  and  _332
REMARK  121  A    between atoms: _337  and  _338
REMARK  122  A    between atoms: _340  and  _342
REMARK  123  A    between atoms: _342  and  _343
REMARK  124  A    between atoms: _342  and  _345
REMARK  125  A    between atoms: _345  and  _346
REMARK  126  A    between atoms: _349  and  _351
REMARK  127  A    between atoms: _351  and  _352
REMARK  128  A    between atoms: _351  and  _354
REMARK  129  A    between atoms: _354  and  _355
REMARK  130  A    between atoms: _358  and  _360
REMARK  131  A    between atoms: _360  and  _361
REMARK  132  A    between atoms: _360  and  _363
REMARK  133  A    between atoms: _363  and  _364
REMARK  134  A    between atoms: _364  and  _365
REMARK  135  A    between atoms: _368  and  _370
REMARK  136  A    between atoms: _370  and  _371
REMARK  137  A    between atoms: _370  and  _373
REMARK  138  A    between atoms: _373  and  _374
REMARK  139  A    between atoms: _374  and  _375
REMARK  140  A    between atoms: _375  and  _376
REMARK  141  A    between atoms: _385  and  _387
REMARK  142  A    between atoms: _387  and  _388
REMARK  143  A    between atoms: _390  and  _392
REMARK  144  A    between atoms: _392  and  _393
REMARK  145  A    between atoms: _392  and  _395
REMARK  146  A    between atoms: _395  and  _396
REMARK                            x       y       z     vdW  Elec       q    Type
REMARK                         _______ _______ _______ _____ _____    ______ ____
ROOT
ATOM      1  C   SER A   2      26.200  57.038  11.919  0.00  0.00    +0.243 C 
ATOM      2  O   SER A   2      25.832  55.947  12.361  0.00  0.00    -0.273 OA
ATOM      3  N   TYR A   3      27.447  57.478  11.962  0.00  0.00    -0.297 N 
ATOM      4  H   TYR A   3      27.699  58.346  11.448  0.00  0.00    +0.150 HD
ENDROOT
BRANCH   3   5
ATOM      5  CA  TYR A   3      28.465  56.778  12.708  0.00  0.00    +0.153 C 
BRANCH   5   6
ATOM      6  C   TYR A   3      28.512  57.233  14.165  0.00  0.00    +0.241 C 
ATOM      7  O   TYR A   3      29.353  56.755  14.899  0.00  0.00    -0.273 OA
ATOM      8  N   ASP A   4      27.635  58.155  14.577  0.00  0.00    -0.298 N 
ATOM      9  H   ASP A   4      26.907  58.519  13.930  0.00  0.00    +0.150 HD
BRANCH   8  10
ATOM     10  CA  ASP A   4      27.720  58.648  15.971  0.00  0.00    +0.148 C 
BRANCH  10  11
ATOM     11  C   ASP A   4      27.122  57.609  16.910  0.00  0.00    +0.227 C 
ATOM     12  O   ASP A   4      26.581  56.571  16.505  0.00  0.00    -0.286 OA
ENDBRANCH  10  11
BRANCH  10  13
ATOM     13  CB  ASP A   4      27.073  60.027  16.092  0.00  0.00    +0.142 C 
BRANCH  13  14
ATOM     14  CG  ASP A   4      25.583  60.066  15.852  0.00  0.00    +0.367 C 
ATOM     15  OD2 ASP A   4      25.011  61.194  15.772  0.00  0.00    -0.246 OA
ATOM     16  OD1 ASP A   4      24.931  59.013  15.742  0.00  0.00    -0.246 OA
ENDBRANCH  13  14
ENDBRANCH  10  13
ENDBRANCH   8  10
ENDBRANCH   5   6
BRANCH   5  17
ATOM     17  CB  TYR A   3      29.850  56.997  12.059  0.00  0.00    +0.055 C 
BRANCH  17  18
ATOM     18  CG  TYR A   3      30.204  58.461  11.878  0.00  0.00    -0.020 A 
ATOM     19  CD2 TYR A   3      30.583  59.238  12.946  0.00  0.00    -0.001 A 
ATOM     20  CE2 TYR A   3      30.887  60.539  12.791  0.00  0.00    +0.036 A 
ATOM     21  CZ  TYR A   3      30.799  61.100  11.538  0.00  0.00    +0.134 A 
ATOM     22  CE1 TYR A   3      30.421  60.348  10.474  0.00  0.00    +0.036 A 
ATOM     23  CD1 TYR A   3      30.122  59.051  10.642  0.00  0.00    -0.001 A 
BRANCH  21  24
ATOM     24  OH  TYR A   3      31.078  62.430  11.331  0.00  0.00    -0.506 OA
ATOM     25  HH  TYR A   3      31.338  62.849  12.189  0.00  0.00    +0.292 HD
ENDBRANCH  21  24
ENDBRANCH  17  18
ENDBRANCH   5  17
ENDBRANCH   3   5
BRANCH   1  26
ATOM     26  CA  SER A   2      25.194  57.992  11.308  0.00  0.00    +0.178 C 
BRANCH  26  28
ATOM     27  C   TYR A   1      23.258  57.601   9.901  0.00  0.00    +0.239 C 
ATOM     28  N   SER A   2      23.958  57.265  10.977  0.00  0.00    -0.295 N 
ATOM     29  H   SER A   2      23.633  56.488  11.587  0.00  0.00    +0.150 HD
ATOM     30  O   TYR A   1      23.648  58.468   9.108  0.00  0.00    -0.274 OA
BRANCH  27  31
ATOM     31  CA  TYR A   1      21.919  56.900   9.699  0.00  0.00    +0.149 C 
BRANCH  31  32
ATOM     32  N   TYR A   1      21.822  55.596  10.366  0.00  0.00    -0.238 NA
ATOM     33  H   TYR A   1      21.245  55.498  11.226  0.00  0.00    +0.142 HD
ENDBRANCH  31  32
BRANCH  31  34
ATOM     34  CB  TYR A   1      20.781  57.763  10.240  0.00  0.00    +0.053 C 
BRANCH  34  35
ATOM     35  CG  TYR A   1      20.838  59.250  10.112  0.00  0.00    -0.020 A 
ATOM     36  CD2 TYR A   1      21.233  60.042  11.192  0.00  0.00    -0.001 A 
ATOM     37  CE2 TYR A   1      21.281  61.406  11.084  0.00  0.00    +0.036 A 
ATOM     38  CZ  TYR A   1      20.917  61.997   9.885  0.00  0.00    +0.134 A 
ATOM     39  CE1 TYR A   1      20.516  61.240   8.802  0.00  0.00    +0.036 A 
ATOM     40  CD1 TYR A   1      20.460  59.857   8.904  0.00  0.00    -0.001 A 
BRANCH  38  41
ATOM     41  OH  TYR A   1      20.965  63.369   9.842  0.00  0.00    -0.506 OA
ATOM     42  HH  TYR A   1      20.687  63.680   8.944  0.00  0.00    +0.292 HD
ENDBRANCH  38  41
ENDBRANCH  34  35
ENDBRANCH  31  34
ENDBRANCH  27  31
ENDBRANCH  26  28
BRANCH  26  43
ATOM     43  CB  SER A   2      24.886  59.145  12.260  0.00  0.00    +0.166 C 
BRANCH  43  44
ATOM     44  OG  SER A   2      26.043  59.822  12.735  0.00  0.00    -0.380 OA
ATOM     45  H   SER A   2      26.542  60.199  11.967  0.00  0.00    +0.211 HD
ENDBRANCH  43  44
ENDBRANCH  26  43
ENDBRANCH   1  26
TORSDOF 18
REMARK  Name = ../refined-set-2016/3d4z/3d4z_pocket.pdb
REMARK  146 active torsions:
REMARK  status: ('A' for Active; 'I' for Inactive)
REMARK    1  A    between atoms: _1  and  _3
REMARK    2  A    between atoms: _14  and  _17
REMARK    3  A    between atoms: _17  and  _18
REMARK    4  A    between atoms: _25  and  _26
REMARK    5  A    between atoms: _33  and  _34
REMARK    6  A    between atoms: _39  and  _41
REMARK    7  A    between atoms: _41  and  _42
REMARK    8  A    between atoms: _44  and  _46
REMARK    9  A    between atoms: _46  and  _47
REMARK   10  A    between atoms: _46  and  _49
REMARK   11  A    between atoms: _49  and  _50
REMARK   12  A    between atoms: _60  and  _62
REMARK   13  A    between atoms: _62  and  _63
REMARK   14  A    between atoms: _62  and  _65
REMARK   15  A    between atoms: _65  and  _66
REMARK   16  A    between atoms: _69  and  _71
REMARK   17  A    between atoms: _71  and  _72
REMARK   18  A    between atoms: _71  and  _74
REMARK   19  A    between atoms: _74  and  _75
REMARK   20  A    between atoms: _80  and  _81
REMARK   21  A    between atoms: _83  and  _85
REMARK   22  A    between atoms: _85  and  _86
REMARK   23  A    between atoms: _85  and  _88
REMARK   24  A    between atoms: _88  and  _89
REMARK   25  A    between atoms: _89  and  _90
REMARK   26  A    between atoms: _92  and  _94
REMARK   27  A    between atoms: _94  and  _95
REMARK   28  A    between atoms: _94  and  _97
REMARK   29  A    between atoms: _97  and  _98
REMARK   30  A    between atoms: _101  and  _103
REMARK   31  A    between atoms: _103  and  _104
REMARK   32  A    between atoms: _103  and  _106
REMARK   33  A    between atoms: _106  and  _107
REMARK   34  A    between atoms: _107  and  _109
REMARK   35  A    between atoms: _109  and  ZN_399
REMARK   36  A    between atoms: _111  and  _112
REMARK   37  A    between atoms: _117  and  _119
REMARK   38  A    between atoms: _119  and  _120
REMARK   39  A    between atoms: _119  and  _122
REMARK   40  A    between atoms: _122  and  _123
REMARK   41  A    between atoms: _129  and  _131
REMARK   42  A    between atoms: _131  and  _132
REMARK   43  A    between atoms: _131  and  _134
REMARK   44  A    between atoms: _134  and  _135
REMARK   45  A    between atoms: _135  and  _136
REMARK   46  A    between atoms: _136  and  _137
REMARK   47  A    between atoms: _146  and  _148
REMARK   48  A    between atoms: _148  and  _149
REMARK   49  A    between atoms: _148  and  _151
REMARK   50  A    between atoms: _151  and  _152
REMARK   51  A    between atoms: _157  and  _158
REMARK   52  A    between atoms: _160  and  _162
REMARK   53  A    between atoms: _162  and  _163
REMARK   54  A    between atoms: _162  and  _165
REMARK   55  A    between atoms: _165  and  _166
REMARK   56  A    between atoms: _168  and  _170
REMARK   57  A    between atoms: _170  and  _171
REMARK   58  A    between atoms: _170  and  _173
REMARK   59  A    between atoms: _173  and  _174
REMARK   60  A    between atoms: _179  and  _180
REMARK   61  A    between atoms: _182  and  _184
REMARK   62  A    between atoms: _184  and  _185
REMARK   63  A    between atoms: _184  and  _187
REMARK   64  A    between atoms: _187  and  _188
REMARK   65  A    between atoms: _191  and  _193
REMARK   66  A    between atoms: _193  and  _194
REMARK   67  A    between atoms: _193  and  _196
REMARK   68  A    between atoms: _196  and  _197
REMARK   69  A    between atoms: _200  and  _202
REMARK   70  A    between atoms: _202  and  _203
REMARK   71  A    between atoms: _202  and  _205
REMARK   72  A    between atoms: _205  and  _206
REMARK   73  A    between atoms: _209  and  _211
REMARK   74  A    between atoms: _211  and  _212
REMARK   75  A    between atoms: _211  and  _214
REMARK   76  A    between atoms: _214  and  _215
REMARK   77  A    between atoms: _221  and  _223
REMARK   78  A    between atoms: _223  and  _224
REMARK   79  A    between atoms: _223  and  _226
REMARK   80  A    between atoms: _226  and  _227
REMARK   81  A    between atoms: _232  and  _233
REMARK   82  A    between atoms: _235  and  _237
REMARK   83  A    between atoms: _237  and  _238
REMARK   84  A    between atoms: _237  and  _240
REMARK   85  A    between atoms: _240  and  _241
REMARK   86  A    between atoms: _244  and  _246
REMARK   87  A    between atoms: _246  and  _247
REMARK   88  A    between atoms: _246  and  _249
REMARK   89  A    between atoms: _249  and  _250
REMARK   90  A    between atoms: _260  and  _262
REMARK   91  A    between atoms: _262  and  _263
REMARK   92  A    between atoms: _262  and  _265
REMARK   93  A    between atoms: _265  and  _266
REMARK   94  A    between atoms: _271  and  _273
REMARK   95  A    between atoms: _273  and  _274
REMARK   96  A    between atoms: _273  and  _276
REMARK   97  A    between atoms: _276  and  _277
REMARK   98  A    between atoms: _281  and  ZN_399
REMARK   99  A    between atoms: _282  and  _284
REMARK  100  A    between atoms: _284  and  _285
REMARK  101  A    between atoms: _284  and  _287
REMARK  102  A    between atoms: _287  and  _288
REMARK  103  A    between atoms: _291  and  _293
REMARK  104  A    between atoms: _293  and  _294
REMARK  105  A    between atoms: _296  and  _298
REMARK  106  A    between atoms: _298  and  _299
REMARK  107  A    between atoms: _298  and  _301
REMARK  108  A    between atoms: _301  and  _302
REMARK  109  A    between atoms: _305  and  _307
REMARK  110  A    between atoms: _307  and  _308
REMARK  111  A    between atoms: _307  and  _310
REMARK  112  A    between atoms: _310  and  _311
REMARK  113  A    between atoms: _314  and  _316
REMARK  114  A    between atoms: _316  and  _317
REMARK  115  A    between atoms: _320  and  _322
REMARK  116  A    between atoms: _322  and  _323
REMARK  117  A    between atoms: _326  and  _328
REMARK  118  A    between atoms: _328  and  _329
REMARK  119  A    between atoms: _328  and  _331
REMARK  120  A    between atoms: _331  and  _332
REMARK  121  A    between atoms: _337  and  _338
REMARK  122  A    between atoms: _340  and  _342
REMARK  123  A    between atoms: _342  and  _343
REMARK  124  A    between atoms: _342  and  _345
REMARK  125  A    between atoms: _345  and  _346
REMARK  126  A    between atoms: _349  and  _351
REMARK  127  A    between atoms: _351  and  _352
REMARK  128  A    between atoms: _351  and  _354
REMARK  129  A    between atoms: _354  and  _355
REMARK  130  A    between atoms: _358  and  _360
REMARK  131  A    between atoms: _360  and  _361
REMARK  132  A    between atoms: _360  and  _363
REMARK  133  A    between atoms: _363  and  _364
REMARK  134  A    between atoms: _364  and  _365
REMARK  135  A    between atoms: _368  and  _370
REMARK  136  A    between atoms: _370  and  _371
REMARK  137  A    between atoms: _370  and  _373
REMARK  138  A    between atoms: _373  and  _374
REMARK  139  A    between atoms: _374  and  _375
REMARK  140  A    between atoms: _375  and  _376
REMARK  141  A    between atoms: _385  and  _387
REMARK  142  A    between atoms: _387  and  _388
REMARK  143  A    between atoms: _390  and  _392
REMARK  144  A    between atoms: _392  and  _393
REMARK  145  A    between atoms: _392  and  _395
REMARK  146  A    between atoms: _395  and  _396
REMARK                            x       y       z     vdW  Elec       q    Type
REMARK                         _______ _______ _______ _____ _____    ______ ____
ROOT
ATOM      1  CA  ASP A   2      33.768  63.806  15.623  0.00  0.00    +0.160 C 
ENDROOT
BRANCH   1   4
ATOM      2  C   ASP A   1      33.119  61.687  16.581  0.00  0.00    +0.239 C 
ATOM      3  O   ASP A   1      34.291  61.342  16.802  0.00  0.00    -0.274 OA
ATOM      4  N   ASP A   2      32.761  62.840  16.063  0.00  0.00    -0.297 N 
ATOM      5  H   ASP A   2      31.751  63.069  15.965  0.00  0.00    +0.150 HD
BRANCH   2   6
ATOM      6  CA  ASP A   1      31.998  60.717  16.941  0.00  0.00    +0.156 C 
BRANCH   6   7
ATOM      7  N   ASP A   1      32.592  59.609  17.634  0.00  0.00    -0.238 NA
ATOM      8  H   ASP A   1      33.601  59.677  17.878  0.00  0.00    +0.142 HD
ENDBRANCH   6   7
BRANCH   6   9
ATOM      9  CB  ASP A   1      30.931  61.374  17.824  0.00  0.00    +0.140 C 
BRANCH   9  10
ATOM     10  CG  ASP A   1      29.843  62.162  17.107  0.00  0.00    +0.367 C 
ATOM     11  OD2 ASP A   1      28.786  62.421  17.749  0.00  0.00    -0.246 OA
ATOM     12  OD1 ASP A   1      30.014  62.555  15.939  0.00  0.00    -0.246 OA
ENDBRANCH   9  10
ENDBRANCH   6   9
ENDBRANCH   2   6
ENDBRANCH   1   4
BRANCH   1  13
ATOM     13  C   ASP A   2      34.638  64.282  16.768  0.00  0.00    +0.241 C 
ATOM     14  O   ASP A   2      34.116  64.762  17.791  0.00  0.00    -0.273 OA
ATOM     15  N   PHE A   3      35.938  64.194  16.545  0.00  0.00    -0.298 N 
ATOM     16  H   PHE A   3      36.272  63.718  15.683  0.00  0.00    +0.150 HD
BRANCH  15  17
ATOM     17  CA  PHE A   3      36.932  64.755  17.489  0.00  0.00    +0.141 C 
BRANCH  17  18
ATOM     18  C   PHE A   3      36.641  64.353  18.915  0.00  0.00    +0.227 C 
ATOM     19  O   PHE A   3      36.823  65.105  19.878  0.00  0.00    -0.286 OA
ENDBRANCH  17  18
BRANCH  17  20
ATOM     20  CB  PHE A   3      37.023  66.282  17.352  0.00  0.00    +0.054 C 
BRANCH  20  21
ATOM     21  CG  PHE A   3      37.561  66.694  16.003  0.00  0.00    -0.020 A 
ATOM     22  CD2 PHE A   3      38.928  66.645  15.772  0.00  0.00    -0.004 A 
ATOM     23  CE2 PHE A   3      39.457  67.054  14.541  0.00  0.00    -0.000 A 
ATOM     24  CZ  PHE A   3      38.585  67.499  13.548  0.00  0.00    -0.000 A 
ATOM     25  CE1 PHE A   3      37.238  67.529  13.758  0.00  0.00    -0.000 A 
ATOM     26  CD1 PHE A   3      36.725  67.150  15.002  0.00  0.00    -0.004 A 
ENDBRANCH  20  21
ENDBRANCH  17  20
ENDBRANCH  15  17
ENDBRANCH   1  13
BRANCH   1  27
ATOM     27  CB  ASP A   2      33.099  65.007  14.987  0.00  0.00    +0.143 C 
BRANCH  27  28
ATOM     28  CG  ASP A   2      32.372  64.736  13.699  0.00  0.00    +0.367 C 
ATOM     29  OD2 ASP A   2      32.349  63.573  13.269  0.00  0.00    -0.246 OA
ATOM     30  OD1 ASP A   2      31.855  65.731  13.094  0.00  0.00    -0.246 OA
ENDBRANCH  27  28
ENDBRANCH   1  27
TORSDOF 12
REMARK  Name = ../refined-set-2016/3d4z/3d4z_pocket.pdb
REMARK  146 active torsions:
REMARK  status: ('A' for Active; 'I' for Inactive)
REMARK    1  A    between atoms: _1  and  _3
REMARK    2  A    between atoms: _14  and  _17
REMARK    3  A    between atoms: _17  and  _18
REMARK    4  A    between atoms: _25  and  _26
REMARK    5  A    between atoms: _33  and  _34
REMARK    6  A    between atoms: _39  and  _41
REMARK    7  A    between atoms: _41  and  _42
REMARK    8  A    between atoms: _44  and  _46
REMARK    9  A    between atoms: _46  and  _47
REMARK   10  A    between atoms: _46  and  _49
REMARK   11  A    between atoms: _49  and  _50
REMARK   12  A    between atoms: _60  and  _62
REMARK   13  A    between atoms: _62  and  _63
REMARK   14  A    between atoms: _62  and  _65
REMARK   15  A    between atoms: _65  and  _66
REMARK   16  A    between atoms: _69  and  _71
REMARK   17  A    between atoms: _71  and  _72
REMARK   18  A    between atoms: _71  and  _74
REMARK   19  A    between atoms: _74  and  _75
REMARK   20  A    between atoms: _80  and  _81
REMARK   21  A    between atoms: _83  and  _85
REMARK   22  A    between atoms: _85  and  _86
REMARK   23  A    between atoms: _85  and  _88
REMARK   24  A    between atoms: _88  and  _89
REMARK   25  A    between atoms: _89  and  _90
REMARK   26  A    between atoms: _92  and  _94
REMARK   27  A    between atoms: _94  and  _95
REMARK   28  A    between atoms: _94  and  _97
REMARK   29  A    between atoms: _97  and  _98
REMARK   30  A    between atoms: _101  and  _103
REMARK   31  A    between atoms: _103  and  _104
REMARK   32  A    between atoms: _103  and  _106
REMARK   33  A    between atoms: _106  and  _107
REMARK   34  A    between atoms: _107  and  _109
REMARK   35  A    between atoms: _109  and  ZN_399
REMARK   36  A    between atoms: _111  and  _112
REMARK   37  A    between atoms: _117  and  _119
REMARK   38  A    between atoms: _119  and  _120
REMARK   39  A    between atoms: _119  and  _122
REMARK   40  A    between atoms: _122  and  _123
REMARK   41  A    between atoms: _129  and  _131
REMARK   42  A    between atoms: _131  and  _132
REMARK   43  A    between atoms: _131  and  _134
REMARK   44  A    between atoms: _134  and  _135
REMARK   45  A    between atoms: _135  and  _136
REMARK   46  A    between atoms: _136  and  _137
REMARK   47  A    between atoms: _146  and  _148
REMARK   48  A    between atoms: _148  and  _149
REMARK   49  A    between atoms: _148  and  _151
REMARK   50  A    between atoms: _151  and  _152
REMARK   51  A    between atoms: _157  and  _158
REMARK   52  A    between atoms: _160  and  _162
REMARK   53  A    between atoms: _162  and  _163
REMARK   54  A    between atoms: _162  and  _165
REMARK   55  A    between atoms: _165  and  _166
REMARK   56  A    between atoms: _168  and  _170
REMARK   57  A    between atoms: _170  and  _171
REMARK   58  A    between atoms: _170  and  _173
REMARK   59  A    between atoms: _173  and  _174
REMARK   60  A    between atoms: _179  and  _180
REMARK   61  A    between atoms: _182  and  _184
REMARK   62  A    between atoms: _184  and  _185
REMARK   63  A    between atoms: _184  and  _187
REMARK   64  A    between atoms: _187  and  _188
REMARK   65  A    between atoms: _191  and  _193
REMARK   66  A    between atoms: _193  and  _194
REMARK   67  A    between atoms: _193  and  _196
REMARK   68  A    between atoms: _196  and  _197
REMARK   69  A    between atoms: _200  and  _202
REMARK   70  A    between atoms: _202  and  _203
REMARK   71  A    between atoms: _202  and  _205
REMARK   72  A    between atoms: _205  and  _206
REMARK   73  A    between atoms: _209  and  _211
REMARK   74  A    between atoms: _211  and  _212
REMARK   75  A    between atoms: _211  and  _214
REMARK   76  A    between atoms: _214  and  _215
REMARK   77  A    between atoms: _221  and  _223
REMARK   78  A    between atoms: _223  and  _224
REMARK   79  A    between atoms: _223  and  _226
REMARK   80  A    between atoms: _226  and  _227
REMARK   81  A    between atoms: _232  and  _233
REMARK   82  A    between atoms: _235  and  _237
REMARK   83  A    between atoms: _237  and  _238
REMARK   84  A    between atoms: _237  and  _240
REMARK   85  A    between atoms: _240  and  _241
REMARK   86  A    between atoms: _244  and  _246
REMARK   87  A    between atoms: _246  and  _247
REMARK   88  A    between atoms: _246  and  _249
REMARK   89  A    between atoms: _249  and  _250
REMARK   90  A    between atoms: _260  and  _262
REMARK   91  A    between atoms: _262  and  _263
REMARK   92  A    between atoms: _262  and  _265
REMARK   93  A    between atoms: _265  and  _266
REMARK   94  A    between atoms: _271  and  _273
REMARK   95  A    between atoms: _273  and  _274
REMARK   96  A    between atoms: _273  and  _276
REMARK   97  A    between atoms: _276  and  _277
REMARK   98  A    between atoms: _281  and  ZN_399
REMARK   99  A    between atoms: _282  and  _284
REMARK  100  A    between atoms: _284  and  _285
REMARK  101  A    between atoms: _284  and  _287
REMARK  102  A    between atoms: _287  and  _288
REMARK  103  A    between atoms: _291  and  _293
REMARK  104  A    between atoms: _293  and  _294
REMARK  105  A    between atoms: _296  and  _298
REMARK  106  A    between atoms: _298  and  _299
REMARK  107  A    between atoms: _298  and  _301
REMARK  108  A    between atoms: _301  and  _302
REMARK  109  A    between atoms: _305  and  _307
REMARK  110  A    between atoms: _307  and  _308
REMARK  111  A    between atoms: _307  and  _310
REMARK  112  A    between atoms: _310  and  _311
REMARK  113  A    between atoms: _314  and  _316
REMARK  114  A    between atoms: _316  and  _317
REMARK  115  A    between atoms: _320  and  _322
REMARK  116  A    between atoms: _322  and  _323
REMARK  117  A    between atoms: _326  and  _328
REMARK  118  A    between atoms: _328  and  _329
REMARK  119  A    between atoms: _328  and  _331
REMARK  120  A    between atoms: _331  and  _332
REMARK  121  A    between atoms: _337  and  _338
REMARK  122  A    between atoms: _340  and  _342
REMARK  123  A    between atoms: _342  and  _343
REMARK  124  A    between atoms: _342  and  _345
REMARK  125  A    between atoms: _345  and  _346
REMARK  126  A    between atoms: _349  and  _351
REMARK  127  A    between atoms: _351  and  _352
REMARK  128  A    between atoms: _351  and  _354
REMARK  129  A    between atoms: _354  and  _355
REMARK  130  A    between atoms: _358  and  _360
REMARK  131  A    between atoms: _360  and  _361
REMARK  132  A    between atoms: _360  and  _363
REMARK  133  A    between atoms: _363  and  _364
REMARK  134  A    between atoms: _364  and  _365
REMARK  135  A    between atoms: _368  and  _370
REMARK  136  A    between atoms: _370  and  _371
REMARK  137  A    between atoms: _370  and  _373
REMARK  138  A    between atoms: _373  and  _374
REMARK  139  A    between atoms: _374  and  _375
REMARK  140  A    between atoms: _375  and  _376
REMARK  141  A    between atoms: _385  and  _387
REMARK  142  A    between atoms: _387  and  _388
REMARK  143  A    between atoms: _390  and  _392
REMARK  144  A    between atoms: _392  and  _393
REMARK  145  A    between atoms: _392  and  _395
REMARK  146  A    between atoms: _395  and  _396
REMARK                            x       y       z     vdW  Elec       q    Type
REMARK                         _______ _______ _______ _____ _____    ______ ____
ROOT
ATOM      1  CG  TYR A   1      24.926  59.500   0.889  0.00  0.00    -0.020 A 
ATOM      2  CD2 TYR A   1      24.463  58.444   1.640  0.00  0.00    -0.001 A 
ATOM      3  CE2 TYR A   1      24.329  58.568   3.012  0.00  0.00    +0.036 A 
ATOM      4  CZ  TYR A   1      24.692  59.735   3.635  0.00  0.00    +0.134 A 
ATOM      5  CE1 TYR A   1      25.172  60.804   2.897  0.00  0.00    +0.036 A 
ATOM      6  CD1 TYR A   1      25.276  60.676   1.524  0.00  0.00    -0.001 A 
ENDROOT
BRANCH   4   7
ATOM      7  OH  TYR A   1      24.630  59.911   5.002  0.00  0.00    -0.506 OA
ATOM      8  HH  TYR A   1      24.275  59.089   5.424  0.00  0.00    +0.292 HD
ENDBRANCH   4   7
BRANCH   1   9
ATOM      9  CB  TYR A   1      25.083  59.402  -0.596  0.00  0.00    +0.051 C 
BRANCH   9  10
ATOM     10  CA  TYR A   1      23.887  59.098  -1.460  0.00  0.00    +0.137 C 
BRANCH  10  11
ATOM     11  N   TYR A   1      24.356  59.213  -2.835  0.00  0.00    -0.239 NA
ATOM     12  H   TYR A   1      25.313  59.579  -3.015  0.00  0.00    +0.142 HD
ENDBRANCH  10  11
BRANCH  10  13
ATOM     13  C   TYR A   1      22.772  60.092  -1.131  0.00  0.00    +0.224 C 
ATOM     14  O   TYR A   1      22.815  61.246  -1.548  0.00  0.00    -0.287 OA
ENDBRANCH  10  13
ENDBRANCH   9  10
ENDBRANCH   1   9
TORSDOF 5
REMARK  Name = ../refined-set-2016/3d4z/3d4z_pocket.pdb
REMARK  146 active torsions:
REMARK  status: ('A' for Active; 'I' for Inactive)
REMARK    1  A    between atoms: _1  and  _3
REMARK    2  A    between atoms: _14  and  _17
REMARK    3  A    between atoms: _17  and  _18
REMARK    4  A    between atoms: _25  and  _26
REMARK    5  A    between atoms: _33  and  _34
REMARK    6  A    between atoms: _39  and  _41
REMARK    7  A    between atoms: _41  and  _42
REMARK    8  A    between atoms: _44  and  _46
REMARK    9  A    between atoms: _46  and  _47
REMARK   10  A    between atoms: _46  and  _49
REMARK   11  A    between atoms: _49  and  _50
REMARK   12  A    between atoms: _60  and  _62
REMARK   13  A    between atoms: _62  and  _63
REMARK   14  A    between atoms: _62  and  _65
REMARK   15  A    between atoms: _65  and  _66
REMARK   16  A    between atoms: _69  and  _71
REMARK   17  A    between atoms: _71  and  _72
REMARK   18  A    between atoms: _71  and  _74
REMARK   19  A    between atoms: _74  and  _75
REMARK   20  A    between atoms: _80  and  _81
REMARK   21  A    between atoms: _83  and  _85
REMARK   22  A    between atoms: _85  and  _86
REMARK   23  A    between atoms: _85  and  _88
REMARK   24  A    between atoms: _88  and  _89
REMARK   25  A    between atoms: _89  and  _90
REMARK   26  A    between atoms: _92  and  _94
REMARK   27  A    between atoms: _94  and  _95
REMARK   28  A    between atoms: _94  and  _97
REMARK   29  A    between atoms: _97  and  _98
REMARK   30  A    between atoms: _101  and  _103
REMARK   31  A    between atoms: _103  and  _104
REMARK   32  A    between atoms: _103  and  _106
REMARK   33  A    between atoms: _106  and  _107
REMARK   34  A    between atoms: _107  and  _109
REMARK   35  A    between atoms: _109  and  ZN_399
REMARK   36  A    between atoms: _111  and  _112
REMARK   37  A    between atoms: _117  and  _119
REMARK   38  A    between atoms: _119  and  _120
REMARK   39  A    between atoms: _119  and  _122
REMARK   40  A    between atoms: _122  and  _123
REMARK   41  A    between atoms: _129  and  _131
REMARK   42  A    between atoms: _131  and  _132
REMARK   43  A    between atoms: _131  and  _134
REMARK   44  A    between atoms: _134  and  _135
REMARK   45  A    between atoms: _135  and  _136
REMARK   46  A    between atoms: _136  and  _137
REMARK   47  A    between atoms: _146  and  _148
REMARK   48  A    between atoms: _148  and  _149
REMARK   49  A    between atoms: _148  and  _151
REMARK   50  A    between atoms: _151  and  _152
REMARK   51  A    between atoms: _157  and  _158
REMARK   52  A    between atoms: _160  and  _162
REMARK   53  A    between atoms: _162  and  _163
REMARK   54  A    between atoms: _162  and  _165
REMARK   55  A    between atoms: _165  and  _166
REMARK   56  A    between atoms: _168  and  _170
REMARK   57  A    between atoms: _170  and  _171
REMARK   58  A    between atoms: _170  and  _173
REMARK   59  A    between atoms: _173  and  _174
REMARK   60  A    between atoms: _179  and  _180
REMARK   61  A    between atoms: _182  and  _184
REMARK   62  A    between atoms: _184  and  _185
REMARK   63  A    between atoms: _184  and  _187
REMARK   64  A    between atoms: _187  and  _188
REMARK   65  A    between atoms: _191  and  _193
REMARK   66  A    between atoms: _193  and  _194
REMARK   67  A    between atoms: _193  and  _196
REMARK   68  A    between atoms: _196  and  _197
REMARK   69  A    between atoms: _200  and  _202
REMARK   70  A    between atoms: _202  and  _203
REMARK   71  A    between atoms: _202  and  _205
REMARK   72  A    between atoms: _205  and  _206
REMARK   73  A    between atoms: _209  and  _211
REMARK   74  A    between atoms: _211  and  _212
REMARK   75  A    between atoms: _211  and  _214
REMARK   76  A    between atoms: _214  and  _215
REMARK   77  A    between atoms: _221  and  _223
REMARK   78  A    between atoms: _223  and  _224
REMARK   79  A    between atoms: _223  and  _226
REMARK   80  A    between atoms: _226  and  _227
REMARK   81  A    between atoms: _232  and  _233
REMARK   82  A    between atoms: _235  and  _237
REMARK   83  A    between atoms: _237  and  _238
REMARK   84  A    between atoms: _237  and  _240
REMARK   85  A    between atoms: _240  and  _241
REMARK   86  A    between atoms: _244  and  _246
REMARK   87  A    between atoms: _246  and  _247
REMARK   88  A    between atoms: _246  and  _249
REMARK   89  A    between atoms: _249  and  _250
REMARK   90  A    between atoms: _260  and  _262
REMARK   91  A    between atoms: _262  and  _263
REMARK   92  A    between atoms: _262  and  _265
REMARK   93  A    between atoms: _265  and  _266
REMARK   94  A    between atoms: _271  and  _273
REMARK   95  A    between atoms: _273  and  _274
REMARK   96  A    between atoms: _273  and  _276
REMARK   97  A    between atoms: _276  and  _277
REMARK   98  A    between atoms: _281  and  ZN_399
REMARK   99  A    between atoms: _282  and  _284
REMARK  100  A    between atoms: _284  and  _285
REMARK  101  A    between atoms: _284  and  _287
REMARK  102  A    between atoms: _287  and  _288
REMARK  103  A    between atoms: _291  and  _293
REMARK  104  A    between atoms: _293  and  _294
REMARK  105  A    between atoms: _296  and  _298
REMARK  106  A    between atoms: _298  and  _299
REMARK  107  A    between atoms: _298  and  _301
REMARK  108  A    between atoms: _301  and  _302
REMARK  109  A    between atoms: _305  and  _307
REMARK  110  A    between atoms: _307  and  _308
REMARK  111  A    between atoms: _307  and  _310
REMARK  112  A    between atoms: _310  and  _311
REMARK  113  A    between atoms: _314  and  _316
REMARK  114  A    between atoms: _316  and  _317
REMARK  115  A    between atoms: _320  and  _322
REMARK  116  A    between atoms: _322  and  _323
REMARK  117  A    between atoms: _326  and  _328
REMARK  118  A    between atoms: _328  and  _329
REMARK  119  A    between atoms: _328  and  _331
REMARK  120  A    between atoms: _331  and  _332
REMARK  121  A    between atoms: _337  and  _338
REMARK  122  A    between atoms: _340  and  _342
REMARK  123  A    between atoms: _342  and  _343
REMARK  124  A    between atoms: _342  and  _345
REMARK  125  A    between atoms: _345  and  _346
REMARK  126  A    between atoms: _349  and  _351
REMARK  127  A    between atoms: _351  and  _352
REMARK  128  A    between atoms: _351  and  _354
REMARK  129  A    between atoms: _354  and  _355
REMARK  130  A    between atoms: _358  and  _360
REMARK  131  A    between atoms: _360  and  _361
REMARK  132  A    between atoms: _360  and  _363
REMARK  133  A    between atoms: _363  and  _364
REMARK  134  A    between atoms: _364  and  _365
REMARK  135  A    between atoms: _368  and  _370
REMARK  136  A    between atoms: _370  and  _371
REMARK  137  A    between atoms: _370  and  _373
REMARK  138  A    between atoms: _373  and  _374
REMARK  139  A    between atoms: _374  and  _375
REMARK  140  A    between atoms: _375  and  _376
REMARK  141  A    between atoms: _385  and  _387
REMARK  142  A    between atoms: _387  and  _388
REMARK  143  A    between atoms: _390  and  _392
REMARK  144  A    between atoms: _392  and  _393
REMARK  145  A    between atoms: _392  and  _395
REMARK  146  A    between atoms: _395  and  _396
REMARK                            x       y       z     vdW  Elec       q    Type
REMARK                         _______ _______ _______ _____ _____    ______ ____
ROOT
ATOM      1  CA  ASP A   1      20.859  60.586   4.155  0.00  0.00    +0.144 C 
ENDROOT
BRANCH   1   2
ATOM      2  N   ASP A   1      20.951  60.954   2.752  0.00  0.00    -0.239 NA
ATOM      3  H   ASP A   1      21.096  61.948   2.481  0.00  0.00    +0.142 HD
ENDBRANCH   1   2
BRANCH   1   4
ATOM      4  C   ASP A   1      19.425  60.654   4.675  0.00  0.00    +0.225 C 
ATOM      5  O   ASP A   1      19.147  60.027   5.702  0.00  0.00    -0.287 OA
ENDBRANCH   1   4
BRANCH   1   6
ATOM      6  CB  ASP A   1      21.771  61.452   5.019  0.00  0.00    +0.139 C 
BRANCH   6   7
ATOM      7  CG  ASP A   1      21.548  62.945   4.941  0.00  0.00    +0.367 C 
ATOM      8  OD2 ASP A   1      22.041  63.677   5.851  0.00  0.00    -0.246 OA
ATOM      9  OD1 ASP A   1      20.905  63.428   3.970  0.00  0.00    -0.246 OA
ENDBRANCH   6   7
ENDBRANCH   1   6
TORSDOF 4
REMARK  Name = ../refined-set-2016/3d4z/3d4z_pocket.pdb
REMARK  146 active torsions:
REMARK  status: ('A' for Active; 'I' for Inactive)
REMARK    1  A    between atoms: _1  and  _3
REMARK    2  A    between atoms: _14  and  _17
REMARK    3  A    between atoms: _17  and  _18
REMARK    4  A    between atoms: _25  and  _26
REMARK    5  A    between atoms: _33  and  _34
REMARK    6  A    between atoms: _39  and  _41
REMARK    7  A    between atoms: _41  and  _42
REMARK    8  A    between atoms: _44  and  _46
REMARK    9  A    between atoms: _46  and  _47
REMARK   10  A    between atoms: _46  and  _49
REMARK   11  A    between atoms: _49  and  _50
REMARK   12  A    between atoms: _60  and  _62
REMARK   13  A    between atoms: _62  and  _63
REMARK   14  A    between atoms: _62  and  _65
REMARK   15  A    between atoms: _65  and  _66
REMARK   16  A    between atoms: _69  and  _71
REMARK   17  A    between atoms: _71  and  _72
REMARK   18  A    between atoms: _71  and  _74
REMARK   19  A    between atoms: _74  and  _75
REMARK   20  A    between atoms: _80  and  _81
REMARK   21  A    between atoms: _83  and  _85
REMARK   22  A    between atoms: _85  and  _86
REMARK   23  A    between atoms: _85  and  _88
REMARK   24  A    between atoms: _88  and  _89
REMARK   25  A    between atoms: _89  and  _90
REMARK   26  A    between atoms: _92  and  _94
REMARK   27  A    between atoms: _94  and  _95
REMARK   28  A    between atoms: _94  and  _97
REMARK   29  A    between atoms: _97  and  _98
REMARK   30  A    between atoms: _101  and  _103
REMARK   31  A    between atoms: _103  and  _104
REMARK   32  A    between atoms: _103  and  _106
REMARK   33  A    between atoms: _106  and  _107
REMARK   34  A    between atoms: _107  and  _109
REMARK   35  A    between atoms: _109  and  ZN_399
REMARK   36  A    between atoms: _111  and  _112
REMARK   37  A    between atoms: _117  and  _119
REMARK   38  A    between atoms: _119  and  _120
REMARK   39  A    between atoms: _119  and  _122
REMARK   40  A    between atoms: _122  and  _123
REMARK   41  A    between atoms: _129  and  _131
REMARK   42  A    between atoms: _131  and  _132
REMARK   43  A    between atoms: _131  and  _134
REMARK   44  A    between atoms: _134  and  _135
REMARK   45  A    between atoms: _135  and  _136
REMARK   46  A    between atoms: _136  and  _137
REMARK   47  A    between atoms: _146  and  _148
REMARK   48  A    between atoms: _148  and  _149
REMARK   49  A    between atoms: _148  and  _151
REMARK   50  A    between atoms: _151  and  _152
REMARK   51  A    between atoms: _157  and  _158
REMARK   52  A    between atoms: _160  and  _162
REMARK   53  A    between atoms: _162  and  _163
REMARK   54  A    between atoms: _162  and  _165
REMARK   55  A    between atoms: _165  and  _166
REMARK   56  A    between atoms: _168  and  _170
REMARK   57  A    between atoms: _170  and  _171
REMARK   58  A    between atoms: _170  and  _173
REMARK   59  A    between atoms: _173  and  _174
REMARK   60  A    between atoms: _179  and  _180
REMARK   61  A    between atoms: _182  and  _184
REMARK   62  A    between atoms: _184  and  _185
REMARK   63  A    between atoms: _184  and  _187
REMARK   64  A    between atoms: _187  and  _188
REMARK   65  A    between atoms: _191  and  _193
REMARK   66  A    between atoms: _193  and  _194
REMARK   67  A    between atoms: _193  and  _196
REMARK   68  A    between atoms: _196  and  _197
REMARK   69  A    between atoms: _200  and  _202
REMARK   70  A    between atoms: _202  and  _203
REMARK   71  A    between atoms: _202  and  _205
REMARK   72  A    between atoms: _205  and  _206
REMARK   73  A    between atoms: _209  and  _211
REMARK   74  A    between atoms: _211  and  _212
REMARK   75  A    between atoms: _211  and  _214
REMARK   76  A    between atoms: _214  and  _215
REMARK   77  A    between atoms: _221  and  _223
REMARK   78  A    between atoms: _223  and  _224
REMARK   79  A    between atoms: _223  and  _226
REMARK   80  A    between atoms: _226  and  _227
REMARK   81  A    between atoms: _232  and  _233
REMARK   82  A    between atoms: _235  and  _237
REMARK   83  A    between atoms: _237  and  _238
REMARK   84  A    between atoms: _237  and  _240
REMARK   85  A    between atoms: _240  and  _241
REMARK   86  A    between atoms: _244  and  _246
REMARK   87  A    between atoms: _246  and  _247
REMARK   88  A    between atoms: _246  and  _249
REMARK   89  A    between atoms: _249  and  _250
REMARK   90  A    between atoms: _260  and  _262
REMARK   91  A    between atoms: _262  and  _263
REMARK   92  A    between atoms: _262  and  _265
REMARK   93  A    between atoms: _265  and  _266
REMARK   94  A    between atoms: _271  and  _273
REMARK   95  A    between atoms: _273  and  _274
REMARK   96  A    between atoms: _273  and  _276
REMARK   97  A    between atoms: _276  and  _277
REMARK   98  A    between atoms: _281  and  ZN_399
REMARK   99  A    between atoms: _282  and  _284
REMARK  100  A    between atoms: _284  and  _285
REMARK  101  A    between atoms: _284  and  _287
REMARK  102  A    between atoms: _287  and  _288
REMARK  103  A    between atoms: _291  and  _293
REMARK  104  A    between atoms: _293  and  _294
REMARK  105  A    between atoms: _296  and  _298
REMARK  106  A    between atoms: _298  and  _299
REMARK  107  A    between atoms: _298  and  _301
REMARK  108  A    between atoms: _301  and  _302
REMARK  109  A    between atoms: _305  and  _307
REMARK  110  A    between atoms: _307  and  _308
REMARK  111  A    between atoms: _307  and  _310
REMARK  112  A    between atoms: _310  and  _311
REMARK  113  A    between atoms: _314  and  _316
REMARK  114  A    between atoms: _316  and  _317
REMARK  115  A    between atoms: _320  and  _322
REMARK  116  A    between atoms: _322  and  _323
REMARK  117  A    between atoms: _326  and  _328
REMARK  118  A    between atoms: _328  and  _329
REMARK  119  A    between atoms: _328  and  _331
REMARK  120  A    between atoms: _331  and  _332
REMARK  121  A    between atoms: _337  and  _338
REMARK  122  A    between atoms: _340  and  _342
REMARK  123  A    between atoms: _342  and  _343
REMARK  124  A    between atoms: _342  and  _345
REMARK  125  A    between atoms: _345  and  _346
REMARK  126  A    between atoms: _349  and  _351
REMARK  127  A    between atoms: _351  and  _352
REMARK  128  A    between atoms: _351  and  _354
REMARK  129  A    between atoms: _354  and  _355
REMARK  130  A    between atoms: _358  and  _360
REMARK  131  A    between atoms: _360  and  _361
REMARK  132  A    between atoms: _360  and  _363
REMARK  133  A    between atoms: _363  and  _364
REMARK  134  A    between atoms: _364  and  _365
REMARK  135  A    between atoms: _368  and  _370
REMARK  136  A    between atoms: _370  and  _371
REMARK  137  A    between atoms: _370  and  _373
REMARK  138  A    between atoms: _373  and  _374
REMARK  139  A    between atoms: _374  and  _375
REMARK  140  A    between atoms: _375  and  _376
REMARK  141  A    between atoms: _385  and  _387
REMARK  142  A    between atoms: _387  and  _388
REMARK  143  A    between atoms: _390  and  _392
REMARK  144  A    between atoms: _392  and  _393
REMARK  145  A    between atoms: _392  and  _395
REMARK  146  A    between atoms: _395  and  _396
REMARK                            x       y       z     vdW  Elec       q    Type
REMARK                         _______ _______ _______ _____ _____    ______ ____
ROOT
ATOM      1  CG  TRP A   1      24.629  64.058   0.504  0.00  0.00    -0.002 A 
ATOM      2  CD2 TRP A   1      25.407  64.333   1.698  0.00  0.00    +0.013 A 
ATOM      3  CE2 TRP A   1      24.510  64.272   2.786  0.00  0.00    +0.056 A 
ATOM      4  CZ2 TRP A   1      24.908  64.489   4.097  0.00  0.00    +0.017 A 
ATOM      5  CH2 TRP A   1      26.251  64.780   4.323  0.00  0.00    +0.001 A 
ATOM      6  CZ3 TRP A   1      27.196  64.853   3.267  0.00  0.00    +0.000 A 
ATOM      7  NE1 TRP A   1      23.253  63.969   2.274  0.00  0.00    -0.352 N 
ATOM      8  HE1 TRP A   1      22.383  63.859   2.833  0.00  0.00    +0.166 HD
ATOM      9  CE3 TRP A   1      26.758  64.629   1.963  0.00  0.00    +0.001 A 
ATOM     10  CD1 TRP A   1      23.347  63.839   0.907  0.00  0.00    +0.068 A 
ENDROOT
BRANCH   1  11
ATOM     11  CB  TRP A   1      25.225  64.018  -0.873  0.00  0.00    +0.053 C 
BRANCH  11  12
ATOM     12  CA  TRP A   1      24.348  64.699  -1.924  0.00  0.00    +0.137 C 
BRANCH  12  13
ATOM     13  N   TRP A   1      23.103  63.963  -2.061  0.00  0.00    -0.239 NA
ATOM     14  H   TRP A   1      23.085  62.933  -1.920  0.00  0.00    +0.142 HD
ENDBRANCH  12  13
BRANCH  12  15
ATOM     15  C   TRP A   1      25.073  64.799  -3.262  0.00  0.00    +0.224 C 
ATOM     16  O   TRP A   1      26.222  64.360  -3.403  0.00  0.00    -0.287 OA
ENDBRANCH  12  15
ENDBRANCH  11  12
ENDBRANCH   1  11
TORSDOF 4
REMARK  Name = ../refined-set-2016/3d4z/3d4z_pocket.pdb
REMARK  146 active torsions:
REMARK  status: ('A' for Active; 'I' for Inactive)
REMARK    1  A    between atoms: _1  and  _3
REMARK    2  A    between atoms: _14  and  _17
REMARK    3  A    between atoms: _17  and  _18
REMARK    4  A    between atoms: _25  and  _26
REMARK    5  A    between atoms: _33  and  _34
REMARK    6  A    between atoms: _39  and  _41
REMARK    7  A    between atoms: _41  and  _42
REMARK    8  A    between atoms: _44  and  _46
REMARK    9  A    between atoms: _46  and  _47
REMARK   10  A    between atoms: _46  and  _49
REMARK   11  A    between atoms: _49  and  _50
REMARK   12  A    between atoms: _60  and  _62
REMARK   13  A    between atoms: _62  and  _63
REMARK   14  A    between atoms: _62  and  _65
REMARK   15  A    between atoms: _65  and  _66
REMARK   16  A    between atoms: _69  and  _71
REMARK   17  A    between atoms: _71  and  _72
REMARK   18  A    between atoms: _71  and  _74
REMARK   19  A    between atoms: _74  and  _75
REMARK   20  A    between atoms: _80  and  _81
REMARK   21  A    between atoms: _83  and  _85
REMARK   22  A    between atoms: _85  and  _86
REMARK   23  A    between atoms: _85  and  _88
REMARK   24  A    between atoms: _88  and  _89
REMARK   25  A    between atoms: _89  and  _90
REMARK   26  A    between atoms: _92  and  _94
REMARK   27  A    between atoms: _94  and  _95
REMARK   28  A    between atoms: _94  and  _97
REMARK   29  A    between atoms: _97  and  _98
REMARK   30  A    between atoms: _101  and  _103
REMARK   31  A    between atoms: _103  and  _104
REMARK   32  A    between atoms: _103  and  _106
REMARK   33  A    between atoms: _106  and  _107
REMARK   34  A    between atoms: _107  and  _109
REMARK   35  A    between atoms: _109  and  ZN_399
REMARK   36  A    between atoms: _111  and  _112
REMARK   37  A    between atoms: _117  and  _119
REMARK   38  A    between atoms: _119  and  _120
REMARK   39  A    between atoms: _119  and  _122
REMARK   40  A    between atoms: _122  and  _123
REMARK   41  A    between atoms: _129  and  _131
REMARK   42  A    between atoms: _131  and  _132
REMARK   43  A    between atoms: _131  and  _134
REMARK   44  A    between atoms: _134  and  _135
REMARK   45  A    between atoms: _135  and  _136
REMARK   46  A    between atoms: _136  and  _137
REMARK   47  A    between atoms: _146  and  _148
REMARK   48  A    between atoms: _148  and  _149
REMARK   49  A    between atoms: _148  and  _151
REMARK   50  A    between atoms: _151  and  _152
REMARK   51  A    between atoms: _157  and  _158
REMARK   52  A    between atoms: _160  and  _162
REMARK   53  A    between atoms: _162  and  _163
REMARK   54  A    between atoms: _162  and  _165
REMARK   55  A    between atoms: _165  and  _166
REMARK   56  A    between atoms: _168  and  _170
REMARK   57  A    between atoms: _170  and  _171
REMARK   58  A    between atoms: _170  and  _173
REMARK   59  A    between atoms: _173  and  _174
REMARK   60  A    between atoms: _179  and  _180
REMARK   61  A    between atoms: _182  and  _184
REMARK   62  A    between atoms: _184  and  _185
REMARK   63  A    between atoms: _184  and  _187
REMARK   64  A    between atoms: _187  and  _188
REMARK   65  A    between atoms: _191  and  _193
REMARK   66  A    between atoms: _193  and  _194
REMARK   67  A    between atoms: _193  and  _196
REMARK   68  A    between atoms: _196  and  _197
REMARK   69  A    between atoms: _200  and  _202
REMARK   70  A    between atoms: _202  and  _203
REMARK   71  A    between atoms: _202  and  _205
REMARK   72  A    between atoms: _205  and  _206
REMARK   73  A    between atoms: _209  and  _211
REMARK   74  A    between atoms: _211  and  _212
REMARK   75  A    between atoms: _211  and  _214
REMARK   76  A    between atoms: _214  and  _215
REMARK   77  A    between atoms: _221  and  _223
REMARK   78  A    between atoms: _223  and  _224
REMARK   79  A    between atoms: _223  and  _226
REMARK   80  A    between atoms: _226  and  _227
REMARK   81  A    between atoms: _232  and  _233
REMARK   82  A    between atoms: _235  and  _237
REMARK   83  A    between atoms: _237  and  _238
REMARK   84  A    between atoms: _237  and  _240
REMARK   85  A    between atoms: _240  and  _241
REMARK   86  A    between atoms: _244  and  _246
REMARK   87  A    between atoms: _246  and  _247
REMARK   88  A    between atoms: _246  and  _249
REMARK   89  A    between atoms: _249  and  _250
REMARK   90  A    between atoms: _260  and  _262
REMARK   91  A    between atoms: _262  and  _263
REMARK   92  A    between atoms: _262  and  _265
REMARK   93  A    between atoms: _265  and  _266
REMARK   94  A    between atoms: _271  and  _273
REMARK   95  A    between atoms: _273  and  _274
REMARK   96  A    between atoms: _273  and  _276
REMARK   97  A    between atoms: _276  and  _277
REMARK   98  A    between atoms: _281  and  ZN_399
REMARK   99  A    between atoms: _282  and  _284
REMARK  100  A    between atoms: _284  and  _285
REMARK  101  A    between atoms: _284  and  _287
REMARK  102  A    between atoms: _287  and  _288
REMARK  103  A    between atoms: _291  and  _293
REMARK  104  A    between atoms: _293  and  _294
REMARK  105  A    between atoms: _296  and  _298
REMARK  106  A    between atoms: _298  and  _299
REMARK  107  A    between atoms: _298  and  _301
REMARK  108  A    between atoms: _301  and  _302
REMARK  109  A    between atoms: _305  and  _307
REMARK  110  A    between atoms: _307  and  _308
REMARK  111  A    between atoms: _307  and  _310
REMARK  112  A    between atoms: _310  and  _311
REMARK  113  A    between atoms: _314  and  _316
REMARK  114  A    between atoms: _316  and  _317
REMARK  115  A    between atoms: _320  and  _322
REMARK  116  A    between atoms: _322  and  _323
REMARK  117  A    between atoms: _326  and  _328
REMARK  118  A    between atoms: _328  and  _329
REMARK  119  A    between atoms: _328  and  _331
REMARK  120  A    between atoms: _331  and  _332
REMARK  121  A    between atoms: _337  and  _338
REMARK  122  A    between atoms: _340  and  _342
REMARK  123  A    between atoms: _342  and  _343
REMARK  124  A    between atoms: _342  and  _345
REMARK  125  A    between atoms: _345  and  _346
REMARK  126  A    between atoms: _349  and  _351
REMARK  127  A    between atoms: _351  and  _352
REMARK  128  A    between atoms: _351  and  _354
REMARK  129  A    between atoms: _354  and  _355
REMARK  130  A    between atoms: _358  and  _360
REMARK  131  A    between atoms: _360  and  _361
REMARK  132  A    between atoms: _360  and  _363
REMARK  133  A    between atoms: _363  and  _364
REMARK  134  A    between atoms: _364  and  _365
REMARK  135  A    between atoms: _368  and  _370
REMARK  136  A    between atoms: _370  and  _371
REMARK  137  A    between atoms: _370  and  _373
REMARK  138  A    between atoms: _373  and  _374
REMARK  139  A    between atoms: _374  and  _375
REMARK  140  A    between atoms: _375  and  _376
REMARK  141  A    between atoms: _385  and  _387
REMARK  142  A    between atoms: _387  and  _388
REMARK  143  A    between atoms: _390  and  _392
REMARK  144  A    between atoms: _392  and  _393
REMARK  145  A    between atoms: _392  and  _395
REMARK  146  A    between atoms: _395  and  _396
REMARK                            x       y       z     vdW  Elec       q    Type
REMARK                         _______ _______ _______ _____ _____    ______ ____
ROOT
ATOM      1  CA  THR A   1      34.524  67.875  -2.275  0.00  0.00    +0.160 C 
ENDROOT
BRANCH   1   2
ATOM      2  N   THR A   1      35.992  67.792  -2.239  0.00  0.00    -0.237 NA
ATOM      3  H   THR A   1      36.452  67.387  -1.399  0.00  0.00    +0.142 HD
ENDBRANCH   1   2
BRANCH   1   4
ATOM      4  CB  THR A   1      33.927  67.143  -1.044  0.00  0.00    +0.134 C 
ATOM      5  CG2 THR A   1      34.339  65.694  -0.961  0.00  0.00    +0.034 C 
BRANCH   4   6
ATOM      6  OG1 THR A   1      34.489  67.865   0.072  0.00  0.00    -0.383 OA
ATOM      7  HG1 THR A   1      34.163  67.468   0.918  0.00  0.00    +0.210 HD
ENDBRANCH   4   6
ENDBRANCH   1   4
BRANCH   1   8
ATOM      8  C   THR A   1      33.968  69.286  -2.270  0.00  0.00    +0.227 C 
ATOM      9  O   THR A   1      32.819  69.493  -2.642  0.00  0.00    -0.287 OA
ENDBRANCH   1   8
TORSDOF 4
REMARK  Name = ../refined-set-2016/3d4z/3d4z_pocket.pdb
REMARK  146 active torsions:
REMARK  status: ('A' for Active; 'I' for Inactive)
REMARK    1  A    between atoms: _1  and  _3
REMARK    2  A    between atoms: _14  and  _17
REMARK    3  A    between atoms: _17  and  _18
REMARK    4  A    between atoms: _25  and  _26
REMARK    5  A    between atoms: _33  and  _34
REMARK    6  A    between atoms: _39  and  _41
REMARK    7  A    between atoms: _41  and  _42
REMARK    8  A    between atoms: _44  and  _46
REMARK    9  A    between atoms: _46  and  _47
REMARK   10  A    between atoms: _46  and  _49
REMARK   11  A    between atoms: _49  and  _50
REMARK   12  A    between atoms: _60  and  _62
REMARK   13  A    between atoms: _62  and  _63
REMARK   14  A    between atoms: _62  and  _65
REMARK   15  A    between atoms: _65  and  _66
REMARK   16  A    between atoms: _69  and  _71
REMARK   17  A    between atoms: _71  and  _72
REMARK   18  A    between atoms: _71  and  _74
REMARK   19  A    between atoms: _74  and  _75
REMARK   20  A    between atoms: _80  and  _81
REMARK   21  A    between atoms: _83  and  _85
REMARK   22  A    between atoms: _85  and  _86
REMARK   23  A    between atoms: _85  and  _88
REMARK   24  A    between atoms: _88  and  _89
REMARK   25  A    between atoms: _89  and  _90
REMARK   26  A    between atoms: _92  and  _94
REMARK   27  A    between atoms: _94  and  _95
REMARK   28  A    between atoms: _94  and  _97
REMARK   29  A    between atoms: _97  and  _98
REMARK   30  A    between atoms: _101  and  _103
REMARK   31  A    between atoms: _103  and  _104
REMARK   32  A    between atoms: _103  and  _106
REMARK   33  A    between atoms: _106  and  _107
REMARK   34  A    between atoms: _107  and  _109
REMARK   35  A    between atoms: _109  and  ZN_399
REMARK   36  A    between atoms: _111  and  _112
REMARK   37  A    between atoms: _117  and  _119
REMARK   38  A    between atoms: _119  and  _120
REMARK   39  A    between atoms: _119  and  _122
REMARK   40  A    between atoms: _122  and  _123
REMARK   41  A    between atoms: _129  and  _131
REMARK   42  A    between atoms: _131  and  _132
REMARK   43  A    between atoms: _131  and  _134
REMARK   44  A    between atoms: _134  and  _135
REMARK   45  A    between atoms: _135  and  _136
REMARK   46  A    between atoms: _136  and  _137
REMARK   47  A    between atoms: _146  and  _148
REMARK   48  A    between atoms: _148  and  _149
REMARK   49  A    between atoms: _148  and  _151
REMARK   50  A    between atoms: _151  and  _152
REMARK   51  A    between atoms: _157  and  _158
REMARK   52  A    between atoms: _160  and  _162
REMARK   53  A    between atoms: _162  and  _163
REMARK   54  A    between atoms: _162  and  _165
REMARK   55  A    between atoms: _165  and  _166
REMARK   56  A    between atoms: _168  and  _170
REMARK   57  A    between atoms: _170  and  _171
REMARK   58  A    between atoms: _170  and  _173
REMARK   59  A    between atoms: _173  and  _174
REMARK   60  A    between atoms: _179  and  _180
REMARK   61  A    between atoms: _182  and  _184
REMARK   62  A    between atoms: _184  and  _185
REMARK   63  A    between atoms: _184  and  _187
REMARK   64  A    between atoms: _187  and  _188
REMARK   65  A    between atoms: _191  and  _193
REMARK   66  A    between atoms: _193  and  _194
REMARK   67  A    between atoms: _193  and  _196
REMARK   68  A    between atoms: _196  and  _197
REMARK   69  A    between atoms: _200  and  _202
REMARK   70  A    between atoms: _202  and  _203
REMARK   71  A    between atoms: _202  and  _205
REMARK   72  A    between atoms: _205  and  _206
REMARK   73  A    between atoms: _209  and  _211
REMARK   74  A    between atoms: _211  and  _212
REMARK   75  A    between atoms: _211  and  _214
REMARK   76  A    between atoms: _214  and  _215
REMARK   77  A    between atoms: _221  and  _223
REMARK   78  A    between atoms: _223  and  _224
REMARK   79  A    between atoms: _223  and  _226
REMARK   80  A    between atoms: _226  and  _227
REMARK   81  A    between atoms: _232  and  _233
REMARK   82  A    between atoms: _235  and  _237
REMARK   83  A    between atoms: _237  and  _238
REMARK   84  A    between atoms: _237  and  _240
REMARK   85  A    between atoms: _240  and  _241
REMARK   86  A    between atoms: _244  and  _246
REMARK   87  A    between atoms: _246  and  _247
REMARK   88  A    between atoms: _246  and  _249
REMARK   89  A    between atoms: _249  and  _250
REMARK   90  A    between atoms: _260  and  _262
REMARK   91  A    between atoms: _262  and  _263
REMARK   92  A    between atoms: _262  and  _265
REMARK   93  A    between atoms: _265  and  _266
REMARK   94  A    between atoms: _271  and  _273
REMARK   95  A    between atoms: _273  and  _274
REMARK   96  A    between atoms: _273  and  _276
REMARK   97  A    between atoms: _276  and  _277
REMARK   98  A    between atoms: _281  and  ZN_399
REMARK   99  A    between atoms: _282  and  _284
REMARK  100  A    between atoms: _284  and  _285
REMARK  101  A    between atoms: _284  and  _287
REMARK  102  A    between atoms: _287  and  _288
REMARK  103  A    between atoms: _291  and  _293
REMARK  104  A    between atoms: _293  and  _294
REMARK  105  A    between atoms: _296  and  _298
REMARK  106  A    between atoms: _298  and  _299
REMARK  107  A    between atoms: _298  and  _301
REMARK  108  A    between atoms: _301  and  _302
REMARK  109  A    between atoms: _305  and  _307
REMARK  110  A    between atoms: _307  and  _308
REMARK  111  A    between atoms: _307  and  _310
REMARK  112  A    between atoms: _310  and  _311
REMARK  113  A    between atoms: _314  and  _316
REMARK  114  A    between atoms: _316  and  _317
REMARK  115  A    between atoms: _320  and  _322
REMARK  116  A    between atoms: _322  and  _323
REMARK  117  A    between atoms: _326  and  _328
REMARK  118  A    between atoms: _328  and  _329
REMARK  119  A    between atoms: _328  and  _331
REMARK  120  A    between atoms: _331  and  _332
REMARK  121  A    between atoms: _337  and  _338
REMARK  122  A    between atoms: _340  and  _342
REMARK  123  A    between atoms: _342  and  _343
REMARK  124  A    between atoms: _342  and  _345
REMARK  125  A    between atoms: _345  and  _346
REMARK  126  A    between atoms: _349  and  _351
REMARK  127  A    between atoms: _351  and  _352
REMARK  128  A    between atoms: _351  and  _354
REMARK  129  A    between atoms: _354  and  _355
REMARK  130  A    between atoms: _358  and  _360
REMARK  131  A    between atoms: _360  and  _361
REMARK  132  A    between atoms: _360  and  _363
REMARK  133  A    between atoms: _363  and  _364
REMARK  134  A    between atoms: _364  and  _365
REMARK  135  A    between atoms: _368  and  _370
REMARK  136  A    between atoms: _370  and  _371
REMARK  137  A    between atoms: _370  and  _373
REMARK  138  A    between atoms: _373  and  _374
REMARK  139  A    between atoms: _374  and  _375
REMARK  140  A    between atoms: _375  and  _376
REMARK  141  A    between atoms: _385  and  _387
REMARK  142  A    between atoms: _387  and  _388
REMARK  143  A    between atoms: _390  and  _392
REMARK  144  A    between atoms: _392  and  _393
REMARK  145  A    between atoms: _392  and  _395
REMARK  146  A    between atoms: _395  and  _396
REMARK                            x       y       z     vdW  Elec       q    Type
REMARK                         _______ _______ _______ _____ _____    ______ ____
ROOT
ATOM      1  C   THR A   1      33.170  71.861   2.747  0.00  0.00    +0.241 C 
ATOM      2  O   THR A   1      32.590  71.716   3.833  0.00  0.00    -0.274 OA
ATOM      3  N   ALA A   2      34.289  72.578   2.607  0.00  0.00    -0.298 N 
ATOM      4  H   ALA A   2      34.714  72.688   1.664  0.00  0.00    +0.150 HD
ENDROOT
BRANCH   3   5
ATOM      5  CA  ALA A   2      34.922  73.208   3.760  0.00  0.00    +0.137 C 
ATOM      6  CB  ALA A   2      36.464  73.044   3.728  0.00  0.00    +0.030 C 
BRANCH   5   7
ATOM      7  C   ALA A   2      34.551  74.679   3.841  0.00  0.00    +0.227 C 
ATOM      8  O   ALA A   2      34.059  75.303   2.876  0.00  0.00    -0.286 OA
ENDBRANCH   5   7
ENDBRANCH   3   5
BRANCH   1   9
ATOM      9  CA  THR A   1      32.520  71.227   1.522  0.00  0.00    +0.172 C 
BRANCH   9  10
ATOM     10  N   THR A   1      33.448  71.069   0.400  0.00  0.00    -0.236 NA
ATOM     11  H   THR A   1      34.226  70.380   0.449  0.00  0.00    +0.142 HD
ENDBRANCH   9  10
BRANCH   9  12
ATOM     12  CB  THR A   1      31.907  69.863   1.903  0.00  0.00    +0.135 C 
ATOM     13  CG2 THR A   1      31.063  69.371   0.714  0.00  0.00    +0.034 C 
BRANCH  12  14
ATOM     14  OG1 THR A   1      32.943  68.900   2.133  0.00  0.00    -0.383 OA
ATOM     15  HG1 THR A   1      33.482  68.794   1.310  0.00  0.00    +0.210 HD
ENDBRANCH  12  14
ENDBRANCH   9  12
ENDBRANCH   1   9
TORSDOF 6
REMARK  Name = ../refined-set-2016/3d4z/3d4z_pocket.pdb
REMARK  146 active torsions:
REMARK  status: ('A' for Active; 'I' for Inactive)
REMARK    1  A    between atoms: _1  and  _3
REMARK    2  A    between atoms: _14  and  _17
REMARK    3  A    between atoms: _17  and  _18
REMARK    4  A    between atoms: _25  and  _26
REMARK    5  A    between atoms: _33  and  _34
REMARK    6  A    between atoms: _39  and  _41
REMARK    7  A    between atoms: _41  and  _42
REMARK    8  A    between atoms: _44  and  _46
REMARK    9  A    between atoms: _46  and  _47
REMARK   10  A    between atoms: _46  and  _49
REMARK   11  A    between atoms: _49  and  _50
REMARK   12  A    between atoms: _60  and  _62
REMARK   13  A    between atoms: _62  and  _63
REMARK   14  A    between atoms: _62  and  _65
REMARK   15  A    between atoms: _65  and  _66
REMARK   16  A    between atoms: _69  and  _71
REMARK   17  A    between atoms: _71  and  _72
REMARK   18  A    between atoms: _71  and  _74
REMARK   19  A    between atoms: _74  and  _75
REMARK   20  A    between atoms: _80  and  _81
REMARK   21  A    between atoms: _83  and  _85
REMARK   22  A    between atoms: _85  and  _86
REMARK   23  A    between atoms: _85  and  _88
REMARK   24  A    between atoms: _88  and  _89
REMARK   25  A    between atoms: _89  and  _90
REMARK   26  A    between atoms: _92  and  _94
REMARK   27  A    between atoms: _94  and  _95
REMARK   28  A    between atoms: _94  and  _97
REMARK   29  A    between atoms: _97  and  _98
REMARK   30  A    between atoms: _101  and  _103
REMARK   31  A    between atoms: _103  and  _104
REMARK   32  A    between atoms: _103  and  _106
REMARK   33  A    between atoms: _106  and  _107
REMARK   34  A    between atoms: _107  and  _109
REMARK   35  A    between atoms: _109  and  ZN_399
REMARK   36  A    between atoms: _111  and  _112
REMARK   37  A    between atoms: _117  and  _119
REMARK   38  A    between atoms: _119  and  _120
REMARK   39  A    between atoms: _119  and  _122
REMARK   40  A    between atoms: _122  and  _123
REMARK   41  A    between atoms: _129  and  _131
REMARK   42  A    between atoms: _131  and  _132
REMARK   43  A    between atoms: _131  and  _134
REMARK   44  A    between atoms: _134  and  _135
REMARK   45  A    between atoms: _135  and  _136
REMARK   46  A    between atoms: _136  and  _137
REMARK   47  A    between atoms: _146  and  _148
REMARK   48  A    between atoms: _148  and  _149
REMARK   49  A    between atoms: _148  and  _151
REMARK   50  A    between atoms: _151  and  _152
REMARK   51  A    between atoms: _157  and  _158
REMARK   52  A    between atoms: _160  and  _162
REMARK   53  A    between atoms: _162  and  _163
REMARK   54  A    between atoms: _162  and  _165
REMARK   55  A    between atoms: _165  and  _166
REMARK   56  A    between atoms: _168  and  _170
REMARK   57  A    between atoms: _170  and  _171
REMARK   58  A    between atoms: _170  and  _173
REMARK   59  A    between atoms: _173  and  _174
REMARK   60  A    between atoms: _179  and  _180
REMARK   61  A    between atoms: _182  and  _184
REMARK   62  A    between atoms: _184  and  _185
REMARK   63  A    between atoms: _184  and  _187
REMARK   64  A    between atoms: _187  and  _188
REMARK   65  A    between atoms: _191  and  _193
REMARK   66  A    between atoms: _193  and  _194
REMARK   67  A    between atoms: _193  and  _196
REMARK   68  A    between atoms: _196  and  _197
REMARK   69  A    between atoms: _200  and  _202
REMARK   70  A    between atoms: _202  and  _203
REMARK   71  A    between atoms: _202  and  _205
REMARK   72  A    between atoms: _205  and  _206
REMARK   73  A    between atoms: _209  and  _211
REMARK   74  A    between atoms: _211  and  _212
REMARK   75  A    between atoms: _211  and  _214
REMARK   76  A    between atoms: _214  and  _215
REMARK   77  A    between atoms: _221  and  _223
REMARK   78  A    between atoms: _223  and  _224
REMARK   79  A    between atoms: _223  and  _226
REMARK   80  A    between atoms: _226  and  _227
REMARK   81  A    between atoms: _232  and  _233
REMARK   82  A    between atoms: _235  and  _237
REMARK   83  A    between atoms: _237  and  _238
REMARK   84  A    between atoms: _237  and  _240
REMARK   85  A    between atoms: _240  and  _241
REMARK   86  A    between atoms: _244  and  _246
REMARK   87  A    between atoms: _246  and  _247
REMARK   88  A    between atoms: _246  and  _249
REMARK   89  A    between atoms: _249  and  _250
REMARK   90  A    between atoms: _260  and  _262
REMARK   91  A    between atoms: _262  and  _263
REMARK   92  A    between atoms: _262  and  _265
REMARK   93  A    between atoms: _265  and  _266
REMARK   94  A    between atoms: _271  and  _273
REMARK   95  A    between atoms: _273  and  _274
REMARK   96  A    between atoms: _273  and  _276
REMARK   97  A    between atoms: _276  and  _277
REMARK   98  A    between atoms: _281  and  ZN_399
REMARK   99  A    between atoms: _282  and  _284
REMARK  100  A    between atoms: _284  and  _285
REMARK  101  A    between atoms: _284  and  _287
REMARK  102  A    between atoms: _287  and  _288
REMARK  103  A    between atoms: _291  and  _293
REMARK  104  A    between atoms: _293  and  _294
REMARK  105  A    between atoms: _296  and  _298
REMARK  106  A    between atoms: _298  and  _299
REMARK  107  A    between atoms: _298  and  _301
REMARK  108  A    between atoms: _301  and  _302
REMARK  109  A    between atoms: _305  and  _307
REMARK  110  A    between atoms: _307  and  _308
REMARK  111  A    between atoms: _307  and  _310
REMARK  112  A    between atoms: _310  and  _311
REMARK  113  A    between atoms: _314  and  _316
REMARK  114  A    between atoms: _316  and  _317
REMARK  115  A    between atoms: _320  and  _322
REMARK  116  A    between atoms: _322  and  _323
REMARK  117  A    between atoms: _326  and  _328
REMARK  118  A    between atoms: _328  and  _329
REMARK  119  A    between atoms: _328  and  _331
REMARK  120  A    between atoms: _331  and  _332
REMARK  121  A    between atoms: _337  and  _338
REMARK  122  A    between atoms: _340  and  _342
REMARK  123  A    between atoms: _342  and  _343
REMARK  124  A    between atoms: _342  and  _345
REMARK  125  A    between atoms: _345  and  _346
REMARK  126  A    between atoms: _349  and  _351
REMARK  127  A    between atoms: _351  and  _352
REMARK  128  A    between atoms: _351  and  _354
REMARK  129  A    between atoms: _354  and  _355
REMARK  130  A    between atoms: _358  and  _360
REMARK  131  A    between atoms: _360  and  _361
REMARK  132  A    between atoms: _360  and  _363
REMARK  133  A    between atoms: _363  and  _364
REMARK  134  A    between atoms: _364  and  _365
REMARK  135  A    between atoms: _368  and  _370
REMARK  136  A    between atoms: _370  and  _371
REMARK  137  A    between atoms: _370  and  _373
REMARK  138  A    between atoms: _373  and  _374
REMARK  139  A    between atoms: _374  and  _375
REMARK  140  A    between atoms: _375  and  _376
REMARK  141  A    between atoms: _385  and  _387
REMARK  142  A    between atoms: _387  and  _388
REMARK  143  A    between atoms: _390  and  _392
REMARK  144  A    between atoms: _392  and  _393
REMARK  145  A    between atoms: _392  and  _395
REMARK  146  A    between atoms: _395  and  _396
REMARK                            x       y       z     vdW  Elec       q    Type
REMARK                         _______ _______ _______ _____ _____    ______ ____
ROOT
ATOM      1  CA  TYR A   2      26.586  69.186  -0.200  0.00  0.00    +0.153 C 
ENDROOT
BRANCH   1   3
ATOM      2  C   ALA A   1      27.580  71.287  -0.871  0.00  0.00    +0.238 C 
ATOM      3  N   TYR A   2      26.759  70.629  -0.062  0.00  0.00    -0.297 N 
ATOM      4  H   TYR A   2      26.236  71.144   0.674  0.00  0.00    +0.150 HD
ATOM      5  O   ALA A   1      28.274  70.728  -1.731  0.00  0.00    -0.274 OA
BRANCH   2   6
ATOM      6  CA  ALA A   1      27.721  72.782  -0.668  0.00  0.00    +0.145 C 
ATOM      7  CB  ALA A   1      28.899  73.009   0.276  0.00  0.00    +0.028 C 
BRANCH   6   8
ATOM      8  N   ALA A   1      26.501  73.414  -0.145  0.00  0.00    -0.238 NA
ATOM      9  H   ALA A   1      26.504  73.896   0.777  0.00  0.00    +0.142 HD
ENDBRANCH   6   8
ENDBRANCH   2   6
ENDBRANCH   1   3
BRANCH   1  10
ATOM     10  C   TYR A   2      25.419  68.805  -1.101  0.00  0.00    +0.241 C 
ATOM     11  N   LEU A   3      24.264  69.462  -0.814  0.00  0.00    -0.298 N 
ATOM     12  H   LEU A   3      24.265  70.267  -0.155  0.00  0.00    +0.150 HD
ATOM     13  O   TYR A   2      25.546  67.959  -1.977  0.00  0.00    -0.273 OA
BRANCH  11  14
ATOM     14  CA  LEU A   3      23.021  69.021  -1.445  0.00  0.00    +0.137 C 
BRANCH  14  15
ATOM     15  C   LEU A   3      22.657  69.793  -2.708  0.00  0.00    +0.227 C 
ATOM     16  O   LEU A   3      22.831  71.013  -2.747  0.00  0.00    -0.286 OA
ENDBRANCH  14  15
BRANCH  14  17
ATOM     17  CB  LEU A   3      21.862  69.258  -0.463  0.00  0.00    +0.028 C 
BRANCH  17  18
ATOM     18  CG  LEU A   3      21.977  68.572   0.914  0.00  0.00    +0.002 C 
ATOM     19  CD2 LEU A   3      20.663  68.784   1.669  0.00  0.00    +0.000 C 
ATOM     20  CD1 LEU A   3      22.368  67.098   0.836  0.00  0.00    +0.000 C 
ENDBRANCH  17  18
ENDBRANCH  14  17
ENDBRANCH  11  14
ENDBRANCH   1  10
BRANCH   1  21
ATOM     21  CB  TYR A   2      26.326  68.550   1.154  0.00  0.00    +0.055 C 
BRANCH  21  22
ATOM     22  CG  TYR A   2      27.343  68.839   2.247  0.00  0.00    -0.020 A 
ATOM     23  CD2 TYR A   2      27.269  70.018   2.983  0.00  0.00    -0.001 A 
ATOM     24  CE2 TYR A   2      28.189  70.278   3.994  0.00  0.00    +0.036 A 
ATOM     25  CZ  TYR A   2      29.165  69.350   4.253  0.00  0.00    +0.134 A 
ATOM     26  CE1 TYR A   2      29.253  68.157   3.546  0.00  0.00    +0.036 A 
ATOM     27  CD1 TYR A   2      28.336  67.911   2.539  0.00  0.00    -0.001 A 
BRANCH  25  28
ATOM     28  OH  TYR A   2      30.037  69.626   5.260  0.00  0.00    -0.506 OA
ATOM     29  HH  TYR A   2      29.959  68.932   5.962  0.00  0.00    +0.292 HD
ENDBRANCH  25  28
ENDBRANCH  21  22
ENDBRANCH   1  21
TORSDOF 11
REMARK  Name = ../refined-set-2016/3d4z/3d4z_pocket.pdb
REMARK  146 active torsions:
REMARK  status: ('A' for Active; 'I' for Inactive)
REMARK    1  A    between atoms: _1  and  _3
REMARK    2  A    between atoms: _14  and  _17
REMARK    3  A    between atoms: _17  and  _18
REMARK    4  A    between atoms: _25  and  _26
REMARK    5  A    between atoms: _33  and  _34
REMARK    6  A    between atoms: _39  and  _41
REMARK    7  A    between atoms: _41  and  _42
REMARK    8  A    between atoms: _44  and  _46
REMARK    9  A    between atoms: _46  and  _47
REMARK   10  A    between atoms: _46  and  _49
REMARK   11  A    between atoms: _49  and  _50
REMARK   12  A    between atoms: _60  and  _62
REMARK   13  A    between atoms: _62  and  _63
REMARK   14  A    between atoms: _62  and  _65
REMARK   15  A    between atoms: _65  and  _66
REMARK   16  A    between atoms: _69  and  _71
REMARK   17  A    between atoms: _71  and  _72
REMARK   18  A    between atoms: _71  and  _74
REMARK   19  A    between atoms: _74  and  _75
REMARK   20  A    between atoms: _80  and  _81
REMARK   21  A    between atoms: _83  and  _85
REMARK   22  A    between atoms: _85  and  _86
REMARK   23  A    between atoms: _85  and  _88
REMARK   24  A    between atoms: _88  and  _89
REMARK   25  A    between atoms: _89  and  _90
REMARK   26  A    between atoms: _92  and  _94
REMARK   27  A    between atoms: _94  and  _95
REMARK   28  A    between atoms: _94  and  _97
REMARK   29  A    between atoms: _97  and  _98
REMARK   30  A    between atoms: _101  and  _103
REMARK   31  A    between atoms: _103  and  _104
REMARK   32  A    between atoms: _103  and  _106
REMARK   33  A    between atoms: _106  and  _107
REMARK   34  A    between atoms: _107  and  _109
REMARK   35  A    between atoms: _109  and  ZN_399
REMARK   36  A    between atoms: _111  and  _112
REMARK   37  A    between atoms: _117  and  _119
REMARK   38  A    between atoms: _119  and  _120
REMARK   39  A    between atoms: _119  and  _122
REMARK   40  A    between atoms: _122  and  _123
REMARK   41  A    between atoms: _129  and  _131
REMARK   42  A    between atoms: _131  and  _132
REMARK   43  A    between atoms: _131  and  _134
REMARK   44  A    between atoms: _134  and  _135
REMARK   45  A    between atoms: _135  and  _136
REMARK   46  A    between atoms: _136  and  _137
REMARK   47  A    between atoms: _146  and  _148
REMARK   48  A    between atoms: _148  and  _149
REMARK   49  A    between atoms: _148  and  _151
REMARK   50  A    between atoms: _151  and  _152
REMARK   51  A    between atoms: _157  and  _158
REMARK   52  A    between atoms: _160  and  _162
REMARK   53  A    between atoms: _162  and  _163
REMARK   54  A    between atoms: _162  and  _165
REMARK   55  A    between atoms: _165  and  _166
REMARK   56  A    between atoms: _168  and  _170
REMARK   57  A    between atoms: _170  and  _171
REMARK   58  A    between atoms: _170  and  _173
REMARK   59  A    between atoms: _173  and  _174
REMARK   60  A    between atoms: _179  and  _180
REMARK   61  A    between atoms: _182  and  _184
REMARK   62  A    between atoms: _184  and  _185
REMARK   63  A    between atoms: _184  and  _187
REMARK   64  A    between atoms: _187  and  _188
REMARK   65  A    between atoms: _191  and  _193
REMARK   66  A    between atoms: _193  and  _194
REMARK   67  A    between atoms: _193  and  _196
REMARK   68  A    between atoms: _196  and  _197
REMARK   69  A    between atoms: _200  and  _202
REMARK   70  A    between atoms: _202  and  _203
REMARK   71  A    between atoms: _202  and  _205
REMARK   72  A    between atoms: _205  and  _206
REMARK   73  A    between atoms: _209  and  _211
REMARK   74  A    between atoms: _211  and  _212
REMARK   75  A    between atoms: _211  and  _214
REMARK   76  A    between atoms: _214  and  _215
REMARK   77  A    between atoms: _221  and  _223
REMARK   78  A    between atoms: _223  and  _224
REMARK   79  A    between atoms: _223  and  _226
REMARK   80  A    between atoms: _226  and  _227
REMARK   81  A    between atoms: _232  and  _233
REMARK   82  A    between atoms: _235  and  _237
REMARK   83  A    between atoms: _237  and  _238
REMARK   84  A    between atoms: _237  and  _240
REMARK   85  A    between atoms: _240  and  _241
REMARK   86  A    between atoms: _244  and  _246
REMARK   87  A    between atoms: _246  and  _247
REMARK   88  A    between atoms: _246  and  _249
REMARK   89  A    between atoms: _249  and  _250
REMARK   90  A    between atoms: _260  and  _262
REMARK   91  A    between atoms: _262  and  _263
REMARK   92  A    between atoms: _262  and  _265
REMARK   93  A    between atoms: _265  and  _266
REMARK   94  A    between atoms: _271  and  _273
REMARK   95  A    between atoms: _273  and  _274
REMARK   96  A    between atoms: _273  and  _276
REMARK   97  A    between atoms: _276  and  _277
REMARK   98  A    between atoms: _281  and  ZN_399
REMARK   99  A    between atoms: _282  and  _284
REMARK  100  A    between atoms: _284  and  _285
REMARK  101  A    between atoms: _284  and  _287
REMARK  102  A    between atoms: _287  and  _288
REMARK  103  A    between atoms: _291  and  _293
REMARK  104  A    between atoms: _293  and  _294
REMARK  105  A    between atoms: _296  and  _298
REMARK  106  A    between atoms: _298  and  _299
REMARK  107  A    between atoms: _298  and  _301
REMARK  108  A    between atoms: _301  and  _302
REMARK  109  A    between atoms: _305  and  _307
REMARK  110  A    between atoms: _307  and  _308
REMARK  111  A    between atoms: _307  and  _310
REMARK  112  A    between atoms: _310  and  _311
REMARK  113  A    between atoms: _314  and  _316
REMARK  114  A    between atoms: _316  and  _317
REMARK  115  A    between atoms: _320  and  _322
REMARK  116  A    between atoms: _322  and  _323
REMARK  117  A    between atoms: _326  and  _328
REMARK  118  A    between atoms: _328  and  _329
REMARK  119  A    between atoms: _328  and  _331
REMARK  120  A    between atoms: _331  and  _332
REMARK  121  A    between atoms: _337  and  _338
REMARK  122  A    between atoms: _340  and  _342
REMARK  123  A    between atoms: _342  and  _343
REMARK  124  A    between atoms: _342  and  _345
REMARK  125  A    between atoms: _345  and  _346
REMARK  126  A    between atoms: _349  and  _351
REMARK  127  A    between atoms: _351  and  _352
REMARK  128  A    between atoms: _351  and  _354
REMARK  129  A    between atoms: _354  and  _355
REMARK  130  A    between atoms: _358  and  _360
REMARK  131  A    between atoms: _360  and  _361
REMARK  132  A    between atoms: _360  and  _363
REMARK  133  A    between atoms: _363  and  _364
REMARK  134  A    between atoms: _364  and  _365
REMARK  135  A    between atoms: _368  and  _370
REMARK  136  A    between atoms: _370  and  _371
REMARK  137  A    between atoms: _370  and  _373
REMARK  138  A    between atoms: _373  and  _374
REMARK  139  A    between atoms: _374  and  _375
REMARK  140  A    between atoms: _375  and  _376
REMARK  141  A    between atoms: _385  and  _387
REMARK  142  A    between atoms: _387  and  _388
REMARK  143  A    between atoms: _390  and  _392
REMARK  144  A    between atoms: _392  and  _393
REMARK  145  A    between atoms: _392  and  _395
REMARK  146  A    between atoms: _395  and  _396
REMARK                            x       y       z     vdW  Elec       q    Type
REMARK                         _______ _______ _______ _____ _____    ______ ____
ROOT
ATOM      1  CA  ARG A   3      25.036  69.449   7.107  0.00  0.00    +0.149 C 
ENDROOT
BRANCH   1   4
ATOM      2  C   GLU A   2      22.896  70.543   7.469  0.00  0.00    +0.241 C 
ATOM      3  O   GLU A   2      22.433  69.600   8.127  0.00  0.00    -0.273 OA
ATOM      4  N   ARG A   3      24.114  70.566   6.909  0.00  0.00    -0.297 N 
ATOM      5  H   ARG A   3      24.404  71.381   6.332  0.00  0.00    +0.150 HD
BRANCH   2   6
ATOM      6  CA  GLU A   2      22.036  71.801   7.310  0.00  0.00    +0.149 C 
BRANCH   6   8
ATOM      7  C   ASP A   1      22.148  72.052   4.901  0.00  0.00    +0.239 C 
ATOM      8  N   GLU A   2      22.374  72.550   6.114  0.00  0.00    -0.297 N 
ATOM      9  H   GLU A   2      22.801  73.494   6.207  0.00  0.00    +0.150 HD
ATOM     10  O   ASP A   1      21.879  70.873   4.689  0.00  0.00    -0.274 OA
BRANCH   7  11
ATOM     11  CA  ASP A   1      22.202  73.019   3.724  0.00  0.00    +0.156 C 
BRANCH  11  12
ATOM     12  N   ASP A   1      23.074  74.174   3.988  0.00  0.00    -0.238 NA
ATOM     13  H   ASP A   1      24.106  74.055   4.032  0.00  0.00    +0.142 HD
ENDBRANCH  11  12
BRANCH  11  14
ATOM     14  CB  ASP A   1      22.589  72.300   2.433  0.00  0.00    +0.140 C 
BRANCH  14  15
ATOM     15  CG  ASP A   1      24.068  71.969   2.319  0.00  0.00    +0.367 C 
ATOM     16  OD2 ASP A   1      24.848  72.321   3.197  0.00  0.00    -0.246 OA
ATOM     17  OD1 ASP A   1      24.426  71.361   1.288  0.00  0.00    -0.246 OA
ENDBRANCH  14  15
ENDBRANCH  11  14
ENDBRANCH   7  11
ENDBRANCH   6   8
BRANCH   6  18
ATOM     18  CB  GLU A   2      20.552  71.364   7.331  0.00  0.00    +0.041 C 
BRANCH  18  19
ATOM     19  CG  GLU A   2      19.575  72.459   7.009  0.00  0.00    +0.116 C 
BRANCH  19  20
ATOM     20  CD  GLU A   2      18.140  71.947   7.093  0.00  0.00    +0.365 C 
ATOM     21  OE2 GLU A   2      17.410  72.721   7.719  0.00  0.00    -0.246 OA
ATOM     22  OE1 GLU A   2      17.750  70.877   6.549  0.00  0.00    -0.246 OA
ENDBRANCH  19  20
ENDBRANCH  18  19
ENDBRANCH   6  18
ENDBRANCH   2   6
ENDBRANCH   1   4
BRANCH   1  23
ATOM     23  C   ARG A   3      26.269  69.852   7.902  0.00  0.00    +0.241 C 
ATOM     24  N   GLY A   4      26.223  70.994   8.581  0.00  0.00    -0.295 N 
ATOM     25  H   GLY A   4      25.427  71.644   8.420  0.00  0.00    +0.150 HD
ATOM     26  O   ARG A   3      27.234  69.087   7.921  0.00  0.00    -0.273 OA
BRANCH  24  27
ATOM     27  CA  GLY A   4      27.251  71.364   9.543  0.00  0.00    +0.176 C 
BRANCH  27  28
ATOM     28  C   GLY A   4      28.239  72.420   9.055  0.00  0.00    +0.243 C 
ATOM     29  O   GLY A   4      29.032  72.970   9.822  0.00  0.00    -0.273 OA
ATOM     30  N   LEU A   5      28.184  72.757   7.779  0.00  0.00    -0.298 N 
ATOM     31  H   LEU A   5      27.455  72.359   7.153  0.00  0.00    +0.150 HD
BRANCH  30  32
ATOM     32  CA  LEU A   5      29.176  73.706   7.268  0.00  0.00    +0.137 C 
BRANCH  32  33
ATOM     33  C   LEU A   5      28.937  75.115   7.787  0.00  0.00    +0.227 C 
ATOM     34  O   LEU A   5      29.871  75.884   7.992  0.00  0.00    -0.286 OA
ENDBRANCH  32  33
BRANCH  32  35
ATOM     35  CB  LEU A   5      29.134  73.679   5.732  0.00  0.00    +0.028 C 
BRANCH  35  36
ATOM     36  CG  LEU A   5      30.030  74.672   4.994  0.00  0.00    +0.002 C 
ATOM     37  CD2 LEU A   5      31.500  74.571   5.457  0.00  0.00    +0.000 C 
ATOM     38  CD1 LEU A   5      29.901  74.453   3.503  0.00  0.00    +0.000 C 
ENDBRANCH  35  36
ENDBRANCH  32  35
ENDBRANCH  30  32
ENDBRANCH  27  28
ENDBRANCH  24  27
ENDBRANCH   1  23
BRANCH   1  39
ATOM     39  CB  ARG A   3      25.388  68.833   5.739  0.00  0.00    +0.033 C 
BRANCH  39  40
ATOM     40  CG  ARG A   3      24.168  68.256   5.016  0.00  0.00    +0.045 C 
BRANCH  40  41
ATOM     41  CD  ARG A   3      23.456  67.202   5.821  0.00  0.00    +0.174 C 
BRANCH  41  42
ATOM     42  NE  ARG A   3      22.368  66.447   5.241  0.00  0.00    -0.265 N 
ATOM     43  HE  ARG A   3      22.539  65.448   5.010  0.00  0.00    +0.259 HD
ATOM     44  CZ  ARG A   3      21.148  66.953   4.981  0.00  0.00    +0.342 C 
ATOM     45  NH2 ARG A   3      20.870  68.242   5.190  0.00  0.00    -0.292 N 
ATOM     46 HH21 ARG A   3      21.604  68.879   5.561  0.00  0.00    +0.255 HD
ATOM     47 HH22 ARG A   3      19.920  68.609   4.981  0.00  0.00    +0.255 HD
ATOM     48  NH1 ARG A   3      20.203  66.153   4.484  0.00  0.00    -0.292 N 
ATOM     49 HH11 ARG A   3      20.413  65.151   4.302  0.00  0.00    +0.255 HD
ATOM     50 HH12 ARG A   3      19.256  66.532   4.279  0.00  0.00    +0.255 HD
ENDBRANCH  41  42
ENDBRANCH  40  41
ENDBRANCH  39  40
ENDBRANCH   1  39
TORSDOF 21
REMARK  Name = ../refined-set-2016/3d4z/3d4z_pocket.pdb
REMARK  146 active torsions:
REMARK  status: ('A' for Active; 'I' for Inactive)
REMARK    1  A    between atoms: _1  and  _3
REMARK    2  A    between atoms: _14  and  _17
REMARK    3  A    between atoms: _17  and  _18
REMARK    4  A    between atoms: _25  and  _26
REMARK    5  A    between atoms: _33  and  _34
REMARK    6  A    between atoms: _39  and  _41
REMARK    7  A    between atoms: _41  and  _42
REMARK    8  A    between atoms: _44  and  _46
REMARK    9  A    between atoms: _46  and  _47
REMARK   10  A    between atoms: _46  and  _49
REMARK   11  A    between atoms: _49  and  _50
REMARK   12  A    between atoms: _60  and  _62
REMARK   13  A    between atoms: _62  and  _63
REMARK   14  A    between atoms: _62  and  _65
REMARK   15  A    between atoms: _65  and  _66
REMARK   16  A    between atoms: _69  and  _71
REMARK   17  A    between atoms: _71  and  _72
REMARK   18  A    between atoms: _71  and  _74
REMARK   19  A    between atoms: _74  and  _75
REMARK   20  A    between atoms: _80  and  _81
REMARK   21  A    between atoms: _83  and  _85
REMARK   22  A    between atoms: _85  and  _86
REMARK   23  A    between atoms: _85  and  _88
REMARK   24  A    between atoms: _88  and  _89
REMARK   25  A    between atoms: _89  and  _90
REMARK   26  A    between atoms: _92  and  _94
REMARK   27  A    between atoms: _94  and  _95
REMARK   28  A    between atoms: _94  and  _97
REMARK   29  A    between atoms: _97  and  _98
REMARK   30  A    between atoms: _101  and  _103
REMARK   31  A    between atoms: _103  and  _104
REMARK   32  A    between atoms: _103  and  _106
REMARK   33  A    between atoms: _106  and  _107
REMARK   34  A    between atoms: _107  and  _109
REMARK   35  A    between atoms: _109  and  ZN_399
REMARK   36  A    between atoms: _111  and  _112
REMARK   37  A    between atoms: _117  and  _119
REMARK   38  A    between atoms: _119  and  _120
REMARK   39  A    between atoms: _119  and  _122
REMARK   40  A    between atoms: _122  and  _123
REMARK   41  A    between atoms: _129  and  _131
REMARK   42  A    between atoms: _131  and  _132
REMARK   43  A    between atoms: _131  and  _134
REMARK   44  A    between atoms: _134  and  _135
REMARK   45  A    between atoms: _135  and  _136
REMARK   46  A    between atoms: _136  and  _137
REMARK   47  A    between atoms: _146  and  _148
REMARK   48  A    between atoms: _148  and  _149
REMARK   49  A    between atoms: _148  and  _151
REMARK   50  A    between atoms: _151  and  _152
REMARK   51  A    between atoms: _157  and  _158
REMARK   52  A    between atoms: _160  and  _162
REMARK   53  A    between atoms: _162  and  _163
REMARK   54  A    between atoms: _162  and  _165
REMARK   55  A    between atoms: _165  and  _166
REMARK   56  A    between atoms: _168  and  _170
REMARK   57  A    between atoms: _170  and  _171
REMARK   58  A    between atoms: _170  and  _173
REMARK   59  A    between atoms: _173  and  _174
REMARK   60  A    between atoms: _179  and  _180
REMARK   61  A    between atoms: _182  and  _184
REMARK   62  A    between atoms: _184  and  _185
REMARK   63  A    between atoms: _184  and  _187
REMARK   64  A    between atoms: _187  and  _188
REMARK   65  A    between atoms: _191  and  _193
REMARK   66  A    between atoms: _193  and  _194
REMARK   67  A    between atoms: _193  and  _196
REMARK   68  A    between atoms: _196  and  _197
REMARK   69  A    between atoms: _200  and  _202
REMARK   70  A    between atoms: _202  and  _203
REMARK   71  A    between atoms: _202  and  _205
REMARK   72  A    between atoms: _205  and  _206
REMARK   73  A    between atoms: _209  and  _211
REMARK   74  A    between atoms: _211  and  _212
REMARK   75  A    between atoms: _211  and  _214
REMARK   76  A    between atoms: _214  and  _215
REMARK   77  A    between atoms: _221  and  _223
REMARK   78  A    between atoms: _223  and  _224
REMARK   79  A    between atoms: _223  and  _226
REMARK   80  A    between atoms: _226  and  _227
REMARK   81  A    between atoms: _232  and  _233
REMARK   82  A    between atoms: _235  and  _237
REMARK   83  A    between atoms: _237  and  _238
REMARK   84  A    between atoms: _237  and  _240
REMARK   85  A    between atoms: _240  and  _241
REMARK   86  A    between atoms: _244  and  _246
REMARK   87  A    between atoms: _246  and  _247
REMARK   88  A    between atoms: _246  and  _249
REMARK   89  A    between atoms: _249  and  _250
REMARK   90  A    between atoms: _260  and  _262
REMARK   91  A    between atoms: _262  and  _263
REMARK   92  A    between atoms: _262  and  _265
REMARK   93  A    between atoms: _265  and  _266
REMARK   94  A    between atoms: _271  and  _273
REMARK   95  A    between atoms: _273  and  _274
REMARK   96  A    between atoms: _273  and  _276
REMARK   97  A    between atoms: _276  and  _277
REMARK   98  A    between atoms: _281  and  ZN_399
REMARK   99  A    between atoms: _282  and  _284
REMARK  100  A    between atoms: _284  and  _285
REMARK  101  A    between atoms: _284  and  _287
REMARK  102  A    between atoms: _287  and  _288
REMARK  103  A    between atoms: _291  and  _293
REMARK  104  A    between atoms: _293  and  _294
REMARK  105  A    between atoms: _296  and  _298
REMARK  106  A    between atoms: _298  and  _299
REMARK  107  A    between atoms: _298  and  _301
REMARK  108  A    between atoms: _301  and  _302
REMARK  109  A    between atoms: _305  and  _307
REMARK  110  A    between atoms: _307  and  _308
REMARK  111  A    between atoms: _307  and  _310
REMARK  112  A    between atoms: _310  and  _311
REMARK  113  A    between atoms: _314  and  _316
REMARK  114  A    between atoms: _316  and  _317
REMARK  115  A    between atoms: _320  and  _322
REMARK  116  A    between atoms: _322  and  _323
REMARK  117  A    between atoms: _326  and  _328
REMARK  118  A    between atoms: _328  and  _329
REMARK  119  A    between atoms: _328  and  _331
REMARK  120  A    between atoms: _331  and  _332
REMARK  121  A    between atoms: _337  and  _338
REMARK  122  A    between atoms: _340  and  _342
REMARK  123  A    between atoms: _342  and  _343
REMARK  124  A    between atoms: _342  and  _345
REMARK  125  A    between atoms: _345  and  _346
REMARK  126  A    between atoms: _349  and  _351
REMARK  127  A    between atoms: _351  and  _352
REMARK  128  A    between atoms: _351  and  _354
REMARK  129  A    between atoms: _354  and  _355
REMARK  130  A    between atoms: _358  and  _360
REMARK  131  A    between atoms: _360  and  _361
REMARK  132  A    between atoms: _360  and  _363
REMARK  133  A    between atoms: _363  and  _364
REMARK  134  A    between atoms: _364  and  _365
REMARK  135  A    between atoms: _368  and  _370
REMARK  136  A    between atoms: _370  and  _371
REMARK  137  A    between atoms: _370  and  _373
REMARK  138  A    between atoms: _373  and  _374
REMARK  139  A    between atoms: _374  and  _375
REMARK  140  A    between atoms: _375  and  _376
REMARK  141  A    between atoms: _385  and  _387
REMARK  142  A    between atoms: _387  and  _388
REMARK  143  A    between atoms: _390  and  _392
REMARK  144  A    between atoms: _392  and  _393
REMARK  145  A    between atoms: _392  and  _395
REMARK  146  A    between atoms: _395  and  _396
REMARK                            x       y       z     vdW  Elec       q    Type
REMARK                         _______ _______ _______ _____ _____    ______ ____
ROOT
ATOM      1  O   HOH     1      27.295  58.913   8.544  0.00  0.00    +0.000 OA
ENDROOT
TORSDOF 0
REMARK  Name = ../refined-set-2016/3d4z/3d4z_pocket.pdb
REMARK  146 active torsions:
REMARK  status: ('A' for Active; 'I' for Inactive)
REMARK    1  A    between atoms: _1  and  _3
REMARK    2  A    between atoms: _14  and  _17
REMARK    3  A    between atoms: _17  and  _18
REMARK    4  A    between atoms: _25  and  _26
REMARK    5  A    between atoms: _33  and  _34
REMARK    6  A    between atoms: _39  and  _41
REMARK    7  A    between atoms: _41  and  _42
REMARK    8  A    between atoms: _44  and  _46
REMARK    9  A    between atoms: _46  and  _47
REMARK   10  A    between atoms: _46  and  _49
REMARK   11  A    between atoms: _49  and  _50
REMARK   12  A    between atoms: _60  and  _62
REMARK   13  A    between atoms: _62  and  _63
REMARK   14  A    between atoms: _62  and  _65
REMARK   15  A    between atoms: _65  and  _66
REMARK   16  A    between atoms: _69  and  _71
REMARK   17  A    between atoms: _71  and  _72
REMARK   18  A    between atoms: _71  and  _74
REMARK   19  A    between atoms: _74  and  _75
REMARK   20  A    between atoms: _80  and  _81
REMARK   21  A    between atoms: _83  and  _85
REMARK   22  A    between atoms: _85  and  _86
REMARK   23  A    between atoms: _85  and  _88
REMARK   24  A    between atoms: _88  and  _89
REMARK   25  A    between atoms: _89  and  _90
REMARK   26  A    between atoms: _92  and  _94
REMARK   27  A    between atoms: _94  and  _95
REMARK   28  A    between atoms: _94  and  _97
REMARK   29  A    between atoms: _97  and  _98
REMARK   30  A    between atoms: _101  and  _103
REMARK   31  A    between atoms: _103  and  _104
REMARK   32  A    between atoms: _103  and  _106
REMARK   33  A    between atoms: _106  and  _107
REMARK   34  A    between atoms: _107  and  _109
REMARK   35  A    between atoms: _109  and  ZN_399
REMARK   36  A    between atoms: _111  and  _112
REMARK   37  A    between atoms: _117  and  _119
REMARK   38  A    between atoms: _119  and  _120
REMARK   39  A    between atoms: _119  and  _122
REMARK   40  A    between atoms: _122  and  _123
REMARK   41  A    between atoms: _129  and  _131
REMARK   42  A    between atoms: _131  and  _132
REMARK   43  A    between atoms: _131  and  _134
REMARK   44  A    between atoms: _134  and  _135
REMARK   45  A    between atoms: _135  and  _136
REMARK   46  A    between atoms: _136  and  _137
REMARK   47  A    between atoms: _146  and  _148
REMARK   48  A    between atoms: _148  and  _149
REMARK   49  A    between atoms: _148  and  _151
REMARK   50  A    between atoms: _151  and  _152
REMARK   51  A    between atoms: _157  and  _158
REMARK   52  A    between atoms: _160  and  _162
REMARK   53  A    between atoms: _162  and  _163
REMARK   54  A    between atoms: _162  and  _165
REMARK   55  A    between atoms: _165  and  _166
REMARK   56  A    between atoms: _168  and  _170
REMARK   57  A    between atoms: _170  and  _171
REMARK   58  A    between atoms: _170  and  _173
REMARK   59  A    between atoms: _173  and  _174
REMARK   60  A    between atoms: _179  and  _180
REMARK   61  A    between atoms: _182  and  _184
REMARK   62  A    between atoms: _184  and  _185
REMARK   63  A    between atoms: _184  and  _187
REMARK   64  A    between atoms: _187  and  _188
REMARK   65  A    between atoms: _191  and  _193
REMARK   66  A    between atoms: _193  and  _194
REMARK   67  A    between atoms: _193  and  _196
REMARK   68  A    between atoms: _196  and  _197
REMARK   69  A    between atoms: _200  and  _202
REMARK   70  A    between atoms: _202  and  _203
REMARK   71  A    between atoms: _202  and  _205
REMARK   72  A    between atoms: _205  and  _206
REMARK   73  A    between atoms: _209  and  _211
REMARK   74  A    between atoms: _211  and  _212
REMARK   75  A    between atoms: _211  and  _214
REMARK   76  A    between atoms: _214  and  _215
REMARK   77  A    between atoms: _221  and  _223
REMARK   78  A    between atoms: _223  and  _224
REMARK   79  A    between atoms: _223  and  _226
REMARK   80  A    between atoms: _226  and  _227
REMARK   81  A    between atoms: _232  and  _233
REMARK   82  A    between atoms: _235  and  _237
REMARK   83  A    between atoms: _237  and  _238
REMARK   84  A    between atoms: _237  and  _240
REMARK   85  A    between atoms: _240  and  _241
REMARK   86  A    between atoms: _244  and  _246
REMARK   87  A    between atoms: _246  and  _247
REMARK   88  A    between atoms: _246  and  _249
REMARK   89  A    between atoms: _249  and  _250
REMARK   90  A    between atoms: _260  and  _262
REMARK   91  A    between atoms: _262  and  _263
REMARK   92  A    between atoms: _262  and  _265
REMARK   93  A    between atoms: _265  and  _266
REMARK   94  A    between atoms: _271  and  _273
REMARK   95  A    between atoms: _273  and  _274
REMARK   96  A    between atoms: _273  and  _276
REMARK   97  A    between atoms: _276  and  _277
REMARK   98  A    between atoms: _281  and  ZN_399
REMARK   99  A    between atoms: _282  and  _284
REMARK  100  A    between atoms: _284  and  _285
REMARK  101  A    between atoms: _284  and  _287
REMARK  102  A    between atoms: _287  and  _288
REMARK  103  A    between atoms: _291  and  _293
REMARK  104  A    between atoms: _293  and  _294
REMARK  105  A    between atoms: _296  and  _298
REMARK  106  A    between atoms: _298  and  _299
REMARK  107  A    between atoms: _298  and  _301
REMARK  108  A    between atoms: _301  and  _302
REMARK  109  A    between atoms: _305  and  _307
REMARK  110  A    between atoms: _307  and  _308
REMARK  111  A    between atoms: _307  and  _310
REMARK  112  A    between atoms: _310  and  _311
REMARK  113  A    between atoms: _314  and  _316
REMARK  114  A    between atoms: _316  and  _317
REMARK  115  A    between atoms: _320  and  _322
REMARK  116  A    between atoms: _322  and  _323
REMARK  117  A    between atoms: _326  and  _328
REMARK  118  A    between atoms: _328  and  _329
REMARK  119  A    between atoms: _328  and  _331
REMARK  120  A    between atoms: _331  and  _332
REMARK  121  A    between atoms: _337  and  _338
REMARK  122  A    between atoms: _340  and  _342
REMARK  123  A    between atoms: _342  and  _343
REMARK  124  A    between atoms: _342  and  _345
REMARK  125  A    between atoms: _345  and  _346
REMARK  126  A    between atoms: _349  and  _351
REMARK  127  A    between atoms: _351  and  _352
REMARK  128  A    between atoms: _351  and  _354
REMARK  129  A    between atoms: _354  and  _355
REMARK  130  A    between atoms: _358  and  _360
REMARK  131  A    between atoms: _360  and  _361
REMARK  132  A    between atoms: _360  and  _363
REMARK  133  A    between atoms: _363  and  _364
REMARK  134  A    between atoms: _364  and  _365
REMARK  135  A    between atoms: _368  and  _370
REMARK  136  A    between atoms: _370  and  _371
REMARK  137  A    between atoms: _370  and  _373
REMARK  138  A    between atoms: _373  and  _374
REMARK  139  A    between atoms: _374  and  _375
REMARK  140  A    between atoms: _375  and  _376
REMARK  141  A    between atoms: _385  and  _387
REMARK  142  A    between atoms: _387  and  _388
REMARK  143  A    between atoms: _390  and  _392
REMARK  144  A    between atoms: _392  and  _393
REMARK  145  A    between atoms: _392  and  _395
REMARK  146  A    between atoms: _395  and  _396
REMARK                            x       y       z     vdW  Elec       q    Type
REMARK                         _______ _______ _______ _____ _____    ______ ____
ROOT
ATOM      1  O   HOH     1      26.959  60.905  10.423  0.00  0.00    +0.000 OA
ENDROOT
TORSDOF 0
REMARK  Name = ../refined-set-2016/3d4z/3d4z_pocket.pdb
REMARK  146 active torsions:
REMARK  status: ('A' for Active; 'I' for Inactive)
REMARK    1  A    between atoms: _1  and  _3
REMARK    2  A    between atoms: _14  and  _17
REMARK    3  A    between atoms: _17  and  _18
REMARK    4  A    between atoms: _25  and  _26
REMARK    5  A    between atoms: _33  and  _34
REMARK    6  A    between atoms: _39  and  _41
REMARK    7  A    between atoms: _41  and  _42
REMARK    8  A    between atoms: _44  and  _46
REMARK    9  A    between atoms: _46  and  _47
REMARK   10  A    between atoms: _46  and  _49
REMARK   11  A    between atoms: _49  and  _50
REMARK   12  A    between atoms: _60  and  _62
REMARK   13  A    between atoms: _62  and  _63
REMARK   14  A    between atoms: _62  and  _65
REMARK   15  A    between atoms: _65  and  _66
REMARK   16  A    between atoms: _69  and  _71
REMARK   17  A    between atoms: _71  and  _72
REMARK   18  A    between atoms: _71  and  _74
REMARK   19  A    between atoms: _74  and  _75
REMARK   20  A    between atoms: _80  and  _81
REMARK   21  A    between atoms: _83  and  _85
REMARK   22  A    between atoms: _85  and  _86
REMARK   23  A    between atoms: _85  and  _88
REMARK   24  A    between atoms: _88  and  _89
REMARK   25  A    between atoms: _89  and  _90
REMARK   26  A    between atoms: _92  and  _94
REMARK   27  A    between atoms: _94  and  _95
REMARK   28  A    between atoms: _94  and  _97
REMARK   29  A    between atoms: _97  and  _98
REMARK   30  A    between atoms: _101  and  _103
REMARK   31  A    between atoms: _103  and  _104
REMARK   32  A    between atoms: _103  and  _106
REMARK   33  A    between atoms: _106  and  _107
REMARK   34  A    between atoms: _107  and  _109
REMARK   35  A    between atoms: _109  and  ZN_399
REMARK   36  A    between atoms: _111  and  _112
REMARK   37  A    between atoms: _117  and  _119
REMARK   38  A    between atoms: _119  and  _120
REMARK   39  A    between atoms: _119  and  _122
REMARK   40  A    between atoms: _122  and  _123
REMARK   41  A    between atoms: _129  and  _131
REMARK   42  A    between atoms: _131  and  _132
REMARK   43  A    between atoms: _131  and  _134
REMARK   44  A    between atoms: _134  and  _135
REMARK   45  A    between atoms: _135  and  _136
REMARK   46  A    between atoms: _136  and  _137
REMARK   47  A    between atoms: _146  and  _148
REMARK   48  A    between atoms: _148  and  _149
REMARK   49  A    between atoms: _148  and  _151
REMARK   50  A    between atoms: _151  and  _152
REMARK   51  A    between atoms: _157  and  _158
REMARK   52  A    between atoms: _160  and  _162
REMARK   53  A    between atoms: _162  and  _163
REMARK   54  A    between atoms: _162  and  _165
REMARK   55  A    between atoms: _165  and  _166
REMARK   56  A    between atoms: _168  and  _170
REMARK   57  A    between atoms: _170  and  _171
REMARK   58  A    between atoms: _170  and  _173
REMARK   59  A    between atoms: _173  and  _174
REMARK   60  A    between atoms: _179  and  _180
REMARK   61  A    between atoms: _182  and  _184
REMARK   62  A    between atoms: _184  and  _185
REMARK   63  A    between atoms: _184  and  _187
REMARK   64  A    between atoms: _187  and  _188
REMARK   65  A    between atoms: _191  and  _193
REMARK   66  A    between atoms: _193  and  _194
REMARK   67  A    between atoms: _193  and  _196
REMARK   68  A    between atoms: _196  and  _197
REMARK   69  A    between atoms: _200  and  _202
REMARK   70  A    between atoms: _202  and  _203
REMARK   71  A    between atoms: _202  and  _205
REMARK   72  A    between atoms: _205  and  _206
REMARK   73  A    between atoms: _209  and  _211
REMARK   74  A    between atoms: _211  and  _212
REMARK   75  A    between atoms: _211  and  _214
REMARK   76  A    between atoms: _214  and  _215
REMARK   77  A    between atoms: _221  and  _223
REMARK   78  A    between atoms: _223  and  _224
REMARK   79  A    between atoms: _223  and  _226
REMARK   80  A    between atoms: _226  and  _227
REMARK   81  A    between atoms: _232  and  _233
REMARK   82  A    between atoms: _235  and  _237
REMARK   83  A    between atoms: _237  and  _238
REMARK   84  A    between atoms: _237  and  _240
REMARK   85  A    between atoms: _240  and  _241
REMARK   86  A    between atoms: _244  and  _246
REMARK   87  A    between atoms: _246  and  _247
REMARK   88  A    between atoms: _246  and  _249
REMARK   89  A    between atoms: _249  and  _250
REMARK   90  A    between atoms: _260  and  _262
REMARK   91  A    between atoms: _262  and  _263
REMARK   92  A    between atoms: _262  and  _265
REMARK   93  A    between atoms: _265  and  _266
REMARK   94  A    between atoms: _271  and  _273
REMARK   95  A    between atoms: _273  and  _274
REMARK   96  A    between atoms: _273  and  _276
REMARK   97  A    between atoms: _276  and  _277
REMARK   98  A    between atoms: _281  and  ZN_399
REMARK   99  A    between atoms: _282  and  _284
REMARK  100  A    between atoms: _284  and  _285
REMARK  101  A    between atoms: _284  and  _287
REMARK  102  A    between atoms: _287  and  _288
REMARK  103  A    between atoms: _291  and  _293
REMARK  104  A    between atoms: _293  and  _294
REMARK  105  A    between atoms: _296  and  _298
REMARK  106  A    between atoms: _298  and  _299
REMARK  107  A    between atoms: _298  and  _301
REMARK  108  A    between atoms: _301  and  _302
REMARK  109  A    between atoms: _305  and  _307
REMARK  110  A    between atoms: _307  and  _308
REMARK  111  A    between atoms: _307  and  _310
REMARK  112  A    between atoms: _310  and  _311
REMARK  113  A    between atoms: _314  and  _316
REMARK  114  A    between atoms: _316  and  _317
REMARK  115  A    between atoms: _320  and  _322
REMARK  116  A    between atoms: _322  and  _323
REMARK  117  A    between atoms: _326  and  _328
REMARK  118  A    between atoms: _328  and  _329
REMARK  119  A    between atoms: _328  and  _331
REMARK  120  A    between atoms: _331  and  _332
REMARK  121  A    between atoms: _337  and  _338
REMARK  122  A    between atoms: _340  and  _342
REMARK  123  A    between atoms: _342  and  _343
REMARK  124  A    between atoms: _342  and  _345
REMARK  125  A    between atoms: _345  and  _346
REMARK  126  A    between atoms: _349  and  _351
REMARK  127  A    between atoms: _351  and  _352
REMARK  128  A    between atoms: _351  and  _354
REMARK  129  A    between atoms: _354  and  _355
REMARK  130  A    between atoms: _358  and  _360
REMARK  131  A    between atoms: _360  and  _361
REMARK  132  A    between atoms: _360  and  _363
REMARK  133  A    between atoms: _363  and  _364
REMARK  134  A    between atoms: _364  and  _365
REMARK  135  A    between atoms: _368  and  _370
REMARK  136  A    between atoms: _370  and  _371
REMARK  137  A    between atoms: _370  and  _373
REMARK  138  A    between atoms: _373  and  _374
REMARK  139  A    between atoms: _374  and  _375
REMARK  140  A    between atoms: _375  and  _376
REMARK  141  A    between atoms: _385  and  _387
REMARK  142  A    between atoms: _387  and  _388
REMARK  143  A    between atoms: _390  and  _392
REMARK  144  A    between atoms: _392  and  _393
REMARK  145  A    between atoms: _392  and  _395
REMARK  146  A    between atoms: _395  and  _396
REMARK                            x       y       z     vdW  Elec       q    Type
REMARK                         _______ _______ _______ _____ _____    ______ ____
ROOT
ATOM      1  O   HOH     1      24.609  61.125   9.256  0.00  0.00    +0.000 OA
ENDROOT
TORSDOF 0
REMARK  Name = ../refined-set-2016/3d4z/3d4z_pocket.pdb
REMARK  146 active torsions:
REMARK  status: ('A' for Active; 'I' for Inactive)
REMARK    1  A    between atoms: _1  and  _3
REMARK    2  A    between atoms: _14  and  _17
REMARK    3  A    between atoms: _17  and  _18
REMARK    4  A    between atoms: _25  and  _26
REMARK    5  A    between atoms: _33  and  _34
REMARK    6  A    between atoms: _39  and  _41
REMARK    7  A    between atoms: _41  and  _42
REMARK    8  A    between atoms: _44  and  _46
REMARK    9  A    between atoms: _46  and  _47
REMARK   10  A    between atoms: _46  and  _49
REMARK   11  A    between atoms: _49  and  _50
REMARK   12  A    between atoms: _60  and  _62
REMARK   13  A    between atoms: _62  and  _63
REMARK   14  A    between atoms: _62  and  _65
REMARK   15  A    between atoms: _65  and  _66
REMARK   16  A    between atoms: _69  and  _71
REMARK   17  A    between atoms: _71  and  _72
REMARK   18  A    between atoms: _71  and  _74
REMARK   19  A    between atoms: _74  and  _75
REMARK   20  A    between atoms: _80  and  _81
REMARK   21  A    between atoms: _83  and  _85
REMARK   22  A    between atoms: _85  and  _86
REMARK   23  A    between atoms: _85  and  _88
REMARK   24  A    between atoms: _88  and  _89
REMARK   25  A    between atoms: _89  and  _90
REMARK   26  A    between atoms: _92  and  _94
REMARK   27  A    between atoms: _94  and  _95
REMARK   28  A    between atoms: _94  and  _97
REMARK   29  A    between atoms: _97  and  _98
REMARK   30  A    between atoms: _101  and  _103
REMARK   31  A    between atoms: _103  and  _104
REMARK   32  A    between atoms: _103  and  _106
REMARK   33  A    between atoms: _106  and  _107
REMARK   34  A    between atoms: _107  and  _109
REMARK   35  A    between atoms: _109  and  ZN_399
REMARK   36  A    between atoms: _111  and  _112
REMARK   37  A    between atoms: _117  and  _119
REMARK   38  A    between atoms: _119  and  _120
REMARK   39  A    between atoms: _119  and  _122
REMARK   40  A    between atoms: _122  and  _123
REMARK   41  A    between atoms: _129  and  _131
REMARK   42  A    between atoms: _131  and  _132
REMARK   43  A    between atoms: _131  and  _134
REMARK   44  A    between atoms: _134  and  _135
REMARK   45  A    between atoms: _135  and  _136
REMARK   46  A    between atoms: _136  and  _137
REMARK   47  A    between atoms: _146  and  _148
REMARK   48  A    between atoms: _148  and  _149
REMARK   49  A    between atoms: _148  and  _151
REMARK   50  A    between atoms: _151  and  _152
REMARK   51  A    between atoms: _157  and  _158
REMARK   52  A    between atoms: _160  and  _162
REMARK   53  A    between atoms: _162  and  _163
REMARK   54  A    between atoms: _162  and  _165
REMARK   55  A    between atoms: _165  and  _166
REMARK   56  A    between atoms: _168  and  _170
REMARK   57  A    between atoms: _170  and  _171
REMARK   58  A    between atoms: _170  and  _173
REMARK   59  A    between atoms: _173  and  _174
REMARK   60  A    between atoms: _179  and  _180
REMARK   61  A    between atoms: _182  and  _184
REMARK   62  A    between atoms: _184  and  _185
REMARK   63  A    between atoms: _184  and  _187
REMARK   64  A    between atoms: _187  and  _188
REMARK   65  A    between atoms: _191  and  _193
REMARK   66  A    between atoms: _193  and  _194
REMARK   67  A    between atoms: _193  and  _196
REMARK   68  A    between atoms: _196  and  _197
REMARK   69  A    between atoms: _200  and  _202
REMARK   70  A    between atoms: _202  and  _203
REMARK   71  A    between atoms: _202  and  _205
REMARK   72  A    between atoms: _205  and  _206
REMARK   73  A    between atoms: _209  and  _211
REMARK   74  A    between atoms: _211  and  _212
REMARK   75  A    between atoms: _211  and  _214
REMARK   76  A    between atoms: _214  and  _215
REMARK   77  A    between atoms: _221  and  _223
REMARK   78  A    between atoms: _223  and  _224
REMARK   79  A    between atoms: _223  and  _226
REMARK   80  A    between atoms: _226  and  _227
REMARK   81  A    between atoms: _232  and  _233
REMARK   82  A    between atoms: _235  and  _237
REMARK   83  A    between atoms: _237  and  _238
REMARK   84  A    between atoms: _237  and  _240
REMARK   85  A    between atoms: _240  and  _241
REMARK   86  A    between atoms: _244  and  _246
REMARK   87  A    between atoms: _246  and  _247
REMARK   88  A    between atoms: _246  and  _249
REMARK   89  A    between atoms: _249  and  _250
REMARK   90  A    between atoms: _260  and  _262
REMARK   91  A    between atoms: _262  and  _263
REMARK   92  A    between atoms: _262  and  _265
REMARK   93  A    between atoms: _265  and  _266
REMARK   94  A    between atoms: _271  and  _273
REMARK   95  A    between atoms: _273  and  _274
REMARK   96  A    between atoms: _273  and  _276
REMARK   97  A    between atoms: _276  and  _277
REMARK   98  A    between atoms: _281  and  ZN_399
REMARK   99  A    between atoms: _282  and  _284
REMARK  100  A    between atoms: _284  and  _285
REMARK  101  A    between atoms: _284  and  _287
REMARK  102  A    between atoms: _287  and  _288
REMARK  103  A    between atoms: _291  and  _293
REMARK  104  A    between atoms: _293  and  _294
REMARK  105  A    between atoms: _296  and  _298
REMARK  106  A    between atoms: _298  and  _299
REMARK  107  A    between atoms: _298  and  _301
REMARK  108  A    between atoms: _301  and  _302
REMARK  109  A    between atoms: _305  and  _307
REMARK  110  A    between atoms: _307  and  _308
REMARK  111  A    between atoms: _307  and  _310
REMARK  112  A    between atoms: _310  and  _311
REMARK  113  A    between atoms: _314  and  _316
REMARK  114  A    between atoms: _316  and  _317
REMARK  115  A    between atoms: _320  and  _322
REMARK  116  A    between atoms: _322  and  _323
REMARK  117  A    between atoms: _326  and  _328
REMARK  118  A    between atoms: _328  and  _329
REMARK  119  A    between atoms: _328  and  _331
REMARK  120  A    between atoms: _331  and  _332
REMARK  121  A    between atoms: _337  and  _338
REMARK  122  A    between atoms: _340  and  _342
REMARK  123  A    between atoms: _342  and  _343
REMARK  124  A    between atoms: _342  and  _345
REMARK  125  A    between atoms: _345  and  _346
REMARK  126  A    between atoms: _349  and  _351
REMARK  127  A    between atoms: _351  and  _352
REMARK  128  A    between atoms: _351  and  _354
REMARK  129  A    between atoms: _354  and  _355
REMARK  130  A    between atoms: _358  and  _360
REMARK  131  A    between atoms: _360  and  _361
REMARK  132  A    between atoms: _360  and  _363
REMARK  133  A    between atoms: _363  and  _364
REMARK  134  A    between atoms: _364  and  _365
REMARK  135  A    between atoms: _368  and  _370
REMARK  136  A    between atoms: _370  and  _371
REMARK  137  A    between atoms: _370  and  _373
REMARK  138  A    between atoms: _373  and  _374
REMARK  139  A    between atoms: _374  and  _375
REMARK  140  A    between atoms: _375  and  _376
REMARK  141  A    between atoms: _385  and  _387
REMARK  142  A    between atoms: _387  and  _388
REMARK  143  A    between atoms: _390  and  _392
REMARK  144  A    between atoms: _392  and  _393
REMARK  145  A    between atoms: _392  and  _395
REMARK  146  A    between atoms: _395  and  _396
REMARK                            x       y       z     vdW  Elec       q    Type
REMARK                         _______ _______ _______ _____ _____    ______ ____
ROOT
ATOM      1  O   HOH     1      24.131  63.039   7.554  0.00  0.00    +0.000 OA
ENDROOT
TORSDOF 0
REMARK  Name = ../refined-set-2016/3d4z/3d4z_pocket.pdb
REMARK  146 active torsions:
REMARK  status: ('A' for Active; 'I' for Inactive)
REMARK    1  A    between atoms: _1  and  _3
REMARK    2  A    between atoms: _14  and  _17
REMARK    3  A    between atoms: _17  and  _18
REMARK    4  A    between atoms: _25  and  _26
REMARK    5  A    between atoms: _33  and  _34
REMARK    6  A    between atoms: _39  and  _41
REMARK    7  A    between atoms: _41  and  _42
REMARK    8  A    between atoms: _44  and  _46
REMARK    9  A    between atoms: _46  and  _47
REMARK   10  A    between atoms: _46  and  _49
REMARK   11  A    between atoms: _49  and  _50
REMARK   12  A    between atoms: _60  and  _62
REMARK   13  A    between atoms: _62  and  _63
REMARK   14  A    between atoms: _62  and  _65
REMARK   15  A    between atoms: _65  and  _66
REMARK   16  A    between atoms: _69  and  _71
REMARK   17  A    between atoms: _71  and  _72
REMARK   18  A    between atoms: _71  and  _74
REMARK   19  A    between atoms: _74  and  _75
REMARK   20  A    between atoms: _80  and  _81
REMARK   21  A    between atoms: _83  and  _85
REMARK   22  A    between atoms: _85  and  _86
REMARK   23  A    between atoms: _85  and  _88
REMARK   24  A    between atoms: _88  and  _89
REMARK   25  A    between atoms: _89  and  _90
REMARK   26  A    between atoms: _92  and  _94
REMARK   27  A    between atoms: _94  and  _95
REMARK   28  A    between atoms: _94  and  _97
REMARK   29  A    between atoms: _97  and  _98
REMARK   30  A    between atoms: _101  and  _103
REMARK   31  A    between atoms: _103  and  _104
REMARK   32  A    between atoms: _103  and  _106
REMARK   33  A    between atoms: _106  and  _107
REMARK   34  A    between atoms: _107  and  _109
REMARK   35  A    between atoms: _109  and  ZN_399
REMARK   36  A    between atoms: _111  and  _112
REMARK   37  A    between atoms: _117  and  _119
REMARK   38  A    between atoms: _119  and  _120
REMARK   39  A    between atoms: _119  and  _122
REMARK   40  A    between atoms: _122  and  _123
REMARK   41  A    between atoms: _129  and  _131
REMARK   42  A    between atoms: _131  and  _132
REMARK   43  A    between atoms: _131  and  _134
REMARK   44  A    between atoms: _134  and  _135
REMARK   45  A    between atoms: _135  and  _136
REMARK   46  A    between atoms: _136  and  _137
REMARK   47  A    between atoms: _146  and  _148
REMARK   48  A    between atoms: _148  and  _149
REMARK   49  A    between atoms: _148  and  _151
REMARK   50  A    between atoms: _151  and  _152
REMARK   51  A    between atoms: _157  and  _158
REMARK   52  A    between atoms: _160  and  _162
REMARK   53  A    between atoms: _162  and  _163
REMARK   54  A    between atoms: _162  and  _165
REMARK   55  A    between atoms: _165  and  _166
REMARK   56  A    between atoms: _168  and  _170
REMARK   57  A    between atoms: _170  and  _171
REMARK   58  A    between atoms: _170  and  _173
REMARK   59  A    between atoms: _173  and  _174
REMARK   60  A    between atoms: _179  and  _180
REMARK   61  A    between atoms: _182  and  _184
REMARK   62  A    between atoms: _184  and  _185
REMARK   63  A    between atoms: _184  and  _187
REMARK   64  A    between atoms: _187  and  _188
REMARK   65  A    between atoms: _191  and  _193
REMARK   66  A    between atoms: _193  and  _194
REMARK   67  A    between atoms: _193  and  _196
REMARK   68  A    between atoms: _196  and  _197
REMARK   69  A    between atoms: _200  and  _202
REMARK   70  A    between atoms: _202  and  _203
REMARK   71  A    between atoms: _202  and  _205
REMARK   72  A    between atoms: _205  and  _206
REMARK   73  A    between atoms: _209  and  _211
REMARK   74  A    between atoms: _211  and  _212
REMARK   75  A    between atoms: _211  and  _214
REMARK   76  A    between atoms: _214  and  _215
REMARK   77  A    between atoms: _221  and  _223
REMARK   78  A    between atoms: _223  and  _224
REMARK   79  A    between atoms: _223  and  _226
REMARK   80  A    between atoms: _226  and  _227
REMARK   81  A    between atoms: _232  and  _233
REMARK   82  A    between atoms: _235  and  _237
REMARK   83  A    between atoms: _237  and  _238
REMARK   84  A    between atoms: _237  and  _240
REMARK   85  A    between atoms: _240  and  _241
REMARK   86  A    between atoms: _244  and  _246
REMARK   87  A    between atoms: _246  and  _247
REMARK   88  A    between atoms: _246  and  _249
REMARK   89  A    between atoms: _249  and  _250
REMARK   90  A    between atoms: _260  and  _262
REMARK   91  A    between atoms: _262  and  _263
REMARK   92  A    between atoms: _262  and  _265
REMARK   93  A    between atoms: _265  and  _266
REMARK   94  A    between atoms: _271  and  _273
REMARK   95  A    between atoms: _273  and  _274
REMARK   96  A    between atoms: _273  and  _276
REMARK   97  A    between atoms: _276  and  _277
REMARK   98  A    between atoms: _281  and  ZN_399
REMARK   99  A    between atoms: _282  and  _284
REMARK  100  A    between atoms: _284  and  _285
REMARK  101  A    between atoms: _284  and  _287
REMARK  102  A    between atoms: _287  and  _288
REMARK  103  A    between atoms: _291  and  _293
REMARK  104  A    between atoms: _293  and  _294
REMARK  105  A    between atoms: _296  and  _298
REMARK  106  A    between atoms: _298  and  _299
REMARK  107  A    between atoms: _298  and  _301
REMARK  108  A    between atoms: _301  and  _302
REMARK  109  A    between atoms: _305  and  _307
REMARK  110  A    between atoms: _307  and  _308
REMARK  111  A    between atoms: _307  and  _310
REMARK  112  A    between atoms: _310  and  _311
REMARK  113  A    between atoms: _314  and  _316
REMARK  114  A    between atoms: _316  and  _317
REMARK  115  A    between atoms: _320  and  _322
REMARK  116  A    between atoms: _322  and  _323
REMARK  117  A    between atoms: _326  and  _328
REMARK  118  A    between atoms: _328  and  _329
REMARK  119  A    between atoms: _328  and  _331
REMARK  120  A    between atoms: _331  and  _332
REMARK  121  A    between atoms: _337  and  _338
REMARK  122  A    between atoms: _340  and  _342
REMARK  123  A    between atoms: _342  and  _343
REMARK  124  A    between atoms: _342  and  _345
REMARK  125  A    between atoms: _345  and  _346
REMARK  126  A    between atoms: _349  and  _351
REMARK  127  A    between atoms: _351  and  _352
REMARK  128  A    between atoms: _351  and  _354
REMARK  129  A    between atoms: _354  and  _355
REMARK  130  A    between atoms: _358  and  _360
REMARK  131  A    between atoms: _360  and  _361
REMARK  132  A    between atoms: _360  and  _363
REMARK  133  A    between atoms: _363  and  _364
REMARK  134  A    between atoms: _364  and  _365
REMARK  135  A    between atoms: _368  and  _370
REMARK  136  A    between atoms: _370  and  _371
REMARK  137  A    between atoms: _370  and  _373
REMARK  138  A    between atoms: _373  and  _374
REMARK  139  A    between atoms: _374  and  _375
REMARK  140  A    between atoms: _375  and  _376
REMARK  141  A    between atoms: _385  and  _387
REMARK  142  A    between atoms: _387  and  _388
REMARK  143  A    between atoms: _390  and  _392
REMARK  144  A    between atoms: _392  and  _393
REMARK  145  A    between atoms: _392  and  _395
REMARK  146  A    between atoms: _395  and  _396
REMARK                            x       y       z     vdW  Elec       q    Type
REMARK                         _______ _______ _______ _____ _____    ______ ____
ROOT
ATOM      1  O   HOH     1      26.457  64.539   8.878  0.00  0.00    +0.000 OA
ENDROOT
TORSDOF 0
REMARK  Name = ../refined-set-2016/3d4z/3d4z_pocket.pdb
REMARK  146 active torsions:
REMARK  status: ('A' for Active; 'I' for Inactive)
REMARK    1  A    between atoms: _1  and  _3
REMARK    2  A    between atoms: _14  and  _17
REMARK    3  A    between atoms: _17  and  _18
REMARK    4  A    between atoms: _25  and  _26
REMARK    5  A    between atoms: _33  and  _34
REMARK    6  A    between atoms: _39  and  _41
REMARK    7  A    between atoms: _41  and  _42
REMARK    8  A    between atoms: _44  and  _46
REMARK    9  A    between atoms: _46  and  _47
REMARK   10  A    between atoms: _46  and  _49
REMARK   11  A    between atoms: _49  and  _50
REMARK   12  A    between atoms: _60  and  _62
REMARK   13  A    between atoms: _62  and  _63
REMARK   14  A    between atoms: _62  and  _65
REMARK   15  A    between atoms: _65  and  _66
REMARK   16  A    between atoms: _69  and  _71
REMARK   17  A    between atoms: _71  and  _72
REMARK   18  A    between atoms: _71  and  _74
REMARK   19  A    between atoms: _74  and  _75
REMARK   20  A    between atoms: _80  and  _81
REMARK   21  A    between atoms: _83  and  _85
REMARK   22  A    between atoms: _85  and  _86
REMARK   23  A    between atoms: _85  and  _88
REMARK   24  A    between atoms: _88  and  _89
REMARK   25  A    between atoms: _89  and  _90
REMARK   26  A    between atoms: _92  and  _94
REMARK   27  A    between atoms: _94  and  _95
REMARK   28  A    between atoms: _94  and  _97
REMARK   29  A    between atoms: _97  and  _98
REMARK   30  A    between atoms: _101  and  _103
REMARK   31  A    between atoms: _103  and  _104
REMARK   32  A    between atoms: _103  and  _106
REMARK   33  A    between atoms: _106  and  _107
REMARK   34  A    between atoms: _107  and  _109
REMARK   35  A    between atoms: _109  and  ZN_399
REMARK   36  A    between atoms: _111  and  _112
REMARK   37  A    between atoms: _117  and  _119
REMARK   38  A    between atoms: _119  and  _120
REMARK   39  A    between atoms: _119  and  _122
REMARK   40  A    between atoms: _122  and  _123
REMARK   41  A    between atoms: _129  and  _131
REMARK   42  A    between atoms: _131  and  _132
REMARK   43  A    between atoms: _131  and  _134
REMARK   44  A    between atoms: _134  and  _135
REMARK   45  A    between atoms: _135  and  _136
REMARK   46  A    between atoms: _136  and  _137
REMARK   47  A    between atoms: _146  and  _148
REMARK   48  A    between atoms: _148  and  _149
REMARK   49  A    between atoms: _148  and  _151
REMARK   50  A    between atoms: _151  and  _152
REMARK   51  A    between atoms: _157  and  _158
REMARK   52  A    between atoms: _160  and  _162
REMARK   53  A    between atoms: _162  and  _163
REMARK   54  A    between atoms: _162  and  _165
REMARK   55  A    between atoms: _165  and  _166
REMARK   56  A    between atoms: _168  and  _170
REMARK   57  A    between atoms: _170  and  _171
REMARK   58  A    between atoms: _170  and  _173
REMARK   59  A    between atoms: _173  and  _174
REMARK   60  A    between atoms: _179  and  _180
REMARK   61  A    between atoms: _182  and  _184
REMARK   62  A    between atoms: _184  and  _185
REMARK   63  A    between atoms: _184  and  _187
REMARK   64  A    between atoms: _187  and  _188
REMARK   65  A    between atoms: _191  and  _193
REMARK   66  A    between atoms: _193  and  _194
REMARK   67  A    between atoms: _193  and  _196
REMARK   68  A    between atoms: _196  and  _197
REMARK   69  A    between atoms: _200  and  _202
REMARK   70  A    between atoms: _202  and  _203
REMARK   71  A    between atoms: _202  and  _205
REMARK   72  A    between atoms: _205  and  _206
REMARK   73  A    between atoms: _209  and  _211
REMARK   74  A    between atoms: _211  and  _212
REMARK   75  A    between atoms: _211  and  _214
REMARK   76  A    between atoms: _214  and  _215
REMARK   77  A    between atoms: _221  and  _223
REMARK   78  A    between atoms: _223  and  _224
REMARK   79  A    between atoms: _223  and  _226
REMARK   80  A    between atoms: _226  and  _227
REMARK   81  A    between atoms: _232  and  _233
REMARK   82  A    between atoms: _235  and  _237
REMARK   83  A    between atoms: _237  and  _238
REMARK   84  A    between atoms: _237  and  _240
REMARK   85  A    between atoms: _240  and  _241
REMARK   86  A    between atoms: _244  and  _246
REMARK   87  A    between atoms: _246  and  _247
REMARK   88  A    between atoms: _246  and  _249
REMARK   89  A    between atoms: _249  and  _250
REMARK   90  A    between atoms: _260  and  _262
REMARK   91  A    between atoms: _262  and  _263
REMARK   92  A    between atoms: _262  and  _265
REMARK   93  A    between atoms: _265  and  _266
REMARK   94  A    between atoms: _271  and  _273
REMARK   95  A    between atoms: _273  and  _274
REMARK   96  A    between atoms: _273  and  _276
REMARK   97  A    between atoms: _276  and  _277
REMARK   98  A    between atoms: _281  and  ZN_399
REMARK   99  A    between atoms: _282  and  _284
REMARK  100  A    between atoms: _284  and  _285
REMARK  101  A    between atoms: _284  and  _287
REMARK  102  A    between atoms: _287  and  _288
REMARK  103  A    between atoms: _291  and  _293
REMARK  104  A    between atoms: _293  and  _294
REMARK  105  A    between atoms: _296  and  _298
REMARK  106  A    between atoms: _298  and  _299
REMARK  107  A    between atoms: _298  and  _301
REMARK  108  A    between atoms: _301  and  _302
REMARK  109  A    between atoms: _305  and  _307
REMARK  110  A    between atoms: _307  and  _308
REMARK  111  A    between atoms: _307  and  _310
REMARK  112  A    between atoms: _310  and  _311
REMARK  113  A    between atoms: _314  and  _316
REMARK  114  A    between atoms: _316  and  _317
REMARK  115  A    between atoms: _320  and  _322
REMARK  116  A    between atoms: _322  and  _323
REMARK  117  A    between atoms: _326  and  _328
REMARK  118  A    between atoms: _328  and  _329
REMARK  119  A    between atoms: _328  and  _331
REMARK  120  A    between atoms: _331  and  _332
REMARK  121  A    between atoms: _337  and  _338
REMARK  122  A    between atoms: _340  and  _342
REMARK  123  A    between atoms: _342  and  _343
REMARK  124  A    between atoms: _342  and  _345
REMARK  125  A    between atoms: _345  and  _346
REMARK  126  A    between atoms: _349  and  _351
REMARK  127  A    between atoms: _351  and  _352
REMARK  128  A    between atoms: _351  and  _354
REMARK  129  A    between atoms: _354  and  _355
REMARK  130  A    between atoms: _358  and  _360
REMARK  131  A    between atoms: _360  and  _361
REMARK  132  A    between atoms: _360  and  _363
REMARK  133  A    between atoms: _363  and  _364
REMARK  134  A    between atoms: _364  and  _365
REMARK  135  A    between atoms: _368  and  _370
REMARK  136  A    between atoms: _370  and  _371
REMARK  137  A    between atoms: _370  and  _373
REMARK  138  A    between atoms: _373  and  _374
REMARK  139  A    between atoms: _374  and  _375
REMARK  140  A    between atoms: _375  and  _376
REMARK  141  A    between atoms: _385  and  _387
REMARK  142  A    between atoms: _387  and  _388
REMARK  143  A    between atoms: _390  and  _392
REMARK  144  A    between atoms: _392  and  _393
REMARK  145  A    between atoms: _392  and  _395
REMARK  146  A    between atoms: _395  and  _396
REMARK                            x       y       z     vdW  Elec       q    Type
REMARK                         _______ _______ _______ _____ _____    ______ ____
ROOT
ATOM      1  O   HOH     1      25.889  72.483   5.714  0.00  0.00    +0.000 OA
ENDROOT
TORSDOF 0
REMARK  Name = ../refined-set-2016/3d4z/3d4z_pocket.pdb
REMARK  146 active torsions:
REMARK  status: ('A' for Active; 'I' for Inactive)
REMARK    1  A    between atoms: _1  and  _3
REMARK    2  A    between atoms: _14  and  _17
REMARK    3  A    between atoms: _17  and  _18
REMARK    4  A    between atoms: _25  and  _26
REMARK    5  A    between atoms: _33  and  _34
REMARK    6  A    between atoms: _39  and  _41
REMARK    7  A    between atoms: _41  and  _42
REMARK    8  A    between atoms: _44  and  _46
REMARK    9  A    between atoms: _46  and  _47
REMARK   10  A    between atoms: _46  and  _49
REMARK   11  A    between atoms: _49  and  _50
REMARK   12  A    between atoms: _60  and  _62
REMARK   13  A    between atoms: _62  and  _63
REMARK   14  A    between atoms: _62  and  _65
REMARK   15  A    between atoms: _65  and  _66
REMARK   16  A    between atoms: _69  and  _71
REMARK   17  A    between atoms: _71  and  _72
REMARK   18  A    between atoms: _71  and  _74
REMARK   19  A    between atoms: _74  and  _75
REMARK   20  A    between atoms: _80  and  _81
REMARK   21  A    between atoms: _83  and  _85
REMARK   22  A    between atoms: _85  and  _86
REMARK   23  A    between atoms: _85  and  _88
REMARK   24  A    between atoms: _88  and  _89
REMARK   25  A    between atoms: _89  and  _90
REMARK   26  A    between atoms: _92  and  _94
REMARK   27  A    between atoms: _94  and  _95
REMARK   28  A    between atoms: _94  and  _97
REMARK   29  A    between atoms: _97  and  _98
REMARK   30  A    between atoms: _101  and  _103
REMARK   31  A    between atoms: _103  and  _104
REMARK   32  A    between atoms: _103  and  _106
REMARK   33  A    between atoms: _106  and  _107
REMARK   34  A    between atoms: _107  and  _109
REMARK   35  A    between atoms: _109  and  ZN_399
REMARK   36  A    between atoms: _111  and  _112
REMARK   37  A    between atoms: _117  and  _119
REMARK   38  A    between atoms: _119  and  _120
REMARK   39  A    between atoms: _119  and  _122
REMARK   40  A    between atoms: _122  and  _123
REMARK   41  A    between atoms: _129  and  _131
REMARK   42  A    between atoms: _131  and  _132
REMARK   43  A    between atoms: _131  and  _134
REMARK   44  A    between atoms: _134  and  _135
REMARK   45  A    between atoms: _135  and  _136
REMARK   46  A    between atoms: _136  and  _137
REMARK   47  A    between atoms: _146  and  _148
REMARK   48  A    between atoms: _148  and  _149
REMARK   49  A    between atoms: _148  and  _151
REMARK   50  A    between atoms: _151  and  _152
REMARK   51  A    between atoms: _157  and  _158
REMARK   52  A    between atoms: _160  and  _162
REMARK   53  A    between atoms: _162  and  _163
REMARK   54  A    between atoms: _162  and  _165
REMARK   55  A    between atoms: _165  and  _166
REMARK   56  A    between atoms: _168  and  _170
REMARK   57  A    between atoms: _170  and  _171
REMARK   58  A    between atoms: _170  and  _173
REMARK   59  A    between atoms: _173  and  _174
REMARK   60  A    between atoms: _179  and  _180
REMARK   61  A    between atoms: _182  and  _184
REMARK   62  A    between atoms: _184  and  _185
REMARK   63  A    between atoms: _184  and  _187
REMARK   64  A    between atoms: _187  and  _188
REMARK   65  A    between atoms: _191  and  _193
REMARK   66  A    between atoms: _193  and  _194
REMARK   67  A    between atoms: _193  and  _196
REMARK   68  A    between atoms: _196  and  _197
REMARK   69  A    between atoms: _200  and  _202
REMARK   70  A    between atoms: _202  and  _203
REMARK   71  A    between atoms: _202  and  _205
REMARK   72  A    between atoms: _205  and  _206
REMARK   73  A    between atoms: _209  and  _211
REMARK   74  A    between atoms: _211  and  _212
REMARK   75  A    between atoms: _211  and  _214
REMARK   76  A    between atoms: _214  and  _215
REMARK   77  A    between atoms: _221  and  _223
REMARK   78  A    between atoms: _223  and  _224
REMARK   79  A    between atoms: _223  and  _226
REMARK   80  A    between atoms: _226  and  _227
REMARK   81  A    between atoms: _232  and  _233
REMARK   82  A    between atoms: _235  and  _237
REMARK   83  A    between atoms: _237  and  _238
REMARK   84  A    between atoms: _237  and  _240
REMARK   85  A    between atoms: _240  and  _241
REMARK   86  A    between atoms: _244  and  _246
REMARK   87  A    between atoms: _246  and  _247
REMARK   88  A    between atoms: _246  and  _249
REMARK   89  A    between atoms: _249  and  _250
REMARK   90  A    between atoms: _260  and  _262
REMARK   91  A    between atoms: _262  and  _263
REMARK   92  A    between atoms: _262  and  _265
REMARK   93  A    between atoms: _265  and  _266
REMARK   94  A    between atoms: _271  and  _273
REMARK   95  A    between atoms: _273  and  _274
REMARK   96  A    between atoms: _273  and  _276
REMARK   97  A    between atoms: _276  and  _277
REMARK   98  A    between atoms: _281  and  ZN_399
REMARK   99  A    between atoms: _282  and  _284
REMARK  100  A    between atoms: _284  and  _285
REMARK  101  A    between atoms: _284  and  _287
REMARK  102  A    between atoms: _287  and  _288
REMARK  103  A    between atoms: _291  and  _293
REMARK  104  A    between atoms: _293  and  _294
REMARK  105  A    between atoms: _296  and  _298
REMARK  106  A    between atoms: _298  and  _299
REMARK  107  A    between atoms: _298  and  _301
REMARK  108  A    between atoms: _301  and  _302
REMARK  109  A    between atoms: _305  and  _307
REMARK  110  A    between atoms: _307  and  _308
REMARK  111  A    between atoms: _307  and  _310
REMARK  112  A    between atoms: _310  and  _311
REMARK  113  A    between atoms: _314  and  _316
REMARK  114  A    between atoms: _316  and  _317
REMARK  115  A    between atoms: _320  and  _322
REMARK  116  A    between atoms: _322  and  _323
REMARK  117  A    between atoms: _326  and  _328
REMARK  118  A    between atoms: _328  and  _329
REMARK  119  A    between atoms: _328  and  _331
REMARK  120  A    between atoms: _331  and  _332
REMARK  121  A    between atoms: _337  and  _338
REMARK  122  A    between atoms: _340  and  _342
REMARK  123  A    between atoms: _342  and  _343
REMARK  124  A    between atoms: _342  and  _345
REMARK  125  A    between atoms: _345  and  _346
REMARK  126  A    between atoms: _349  and  _351
REMARK  127  A    between atoms: _351  and  _352
REMARK  128  A    between atoms: _351  and  _354
REMARK  129  A    between atoms: _354  and  _355
REMARK  130  A    between atoms: _358  and  _360
REMARK  131  A    between atoms: _360  and  _361
REMARK  132  A    between atoms: _360  and  _363
REMARK  133  A    between atoms: _363  and  _364
REMARK  134  A    between atoms: _364  and  _365
REMARK  135  A    between atoms: _368  and  _370
REMARK  136  A    between atoms: _370  and  _371
REMARK  137  A    between atoms: _370  and  _373
REMARK  138  A    between atoms: _373  and  _374
REMARK  139  A    between atoms: _374  and  _375
REMARK  140  A    between atoms: _375  and  _376
REMARK  141  A    between atoms: _385  and  _387
REMARK  142  A    between atoms: _387  and  _388
REMARK  143  A    between atoms: _390  and  _392
REMARK  144  A    between atoms: _392  and  _393
REMARK  145  A    between atoms: _392  and  _395
REMARK  146  A    between atoms: _395  and  _396
REMARK                            x       y       z     vdW  Elec       q    Type
REMARK                         _______ _______ _______ _____ _____    ______ ____
ROOT
ATOM      1  O   HOH     1      24.762  73.366   9.036  0.00  0.00    +0.000 OA
ENDROOT
TORSDOF 0
REMARK  Name = ../refined-set-2016/3d4z/3d4z_pocket.pdb
REMARK  146 active torsions:
REMARK  status: ('A' for Active; 'I' for Inactive)
REMARK    1  A    between atoms: _1  and  _3
REMARK    2  A    between atoms: _14  and  _17
REMARK    3  A    between atoms: _17  and  _18
REMARK    4  A    between atoms: _25  and  _26
REMARK    5  A    between atoms: _33  and  _34
REMARK    6  A    between atoms: _39  and  _41
REMARK    7  A    between atoms: _41  and  _42
REMARK    8  A    between atoms: _44  and  _46
REMARK    9  A    between atoms: _46  and  _47
REMARK   10  A    between atoms: _46  and  _49
REMARK   11  A    between atoms: _49  and  _50
REMARK   12  A    between atoms: _60  and  _62
REMARK   13  A    between atoms: _62  and  _63
REMARK   14  A    between atoms: _62  and  _65
REMARK   15  A    between atoms: _65  and  _66
REMARK   16  A    between atoms: _69  and  _71
REMARK   17  A    between atoms: _71  and  _72
REMARK   18  A    between atoms: _71  and  _74
REMARK   19  A    between atoms: _74  and  _75
REMARK   20  A    between atoms: _80  and  _81
REMARK   21  A    between atoms: _83  and  _85
REMARK   22  A    between atoms: _85  and  _86
REMARK   23  A    between atoms: _85  and  _88
REMARK   24  A    between atoms: _88  and  _89
REMARK   25  A    between atoms: _89  and  _90
REMARK   26  A    between atoms: _92  and  _94
REMARK   27  A    between atoms: _94  and  _95
REMARK   28  A    between atoms: _94  and  _97
REMARK   29  A    between atoms: _97  and  _98
REMARK   30  A    between atoms: _101  and  _103
REMARK   31  A    between atoms: _103  and  _104
REMARK   32  A    between atoms: _103  and  _106
REMARK   33  A    between atoms: _106  and  _107
REMARK   34  A    between atoms: _107  and  _109
REMARK   35  A    between atoms: _109  and  ZN_399
REMARK   36  A    between atoms: _111  and  _112
REMARK   37  A    between atoms: _117  and  _119
REMARK   38  A    between atoms: _119  and  _120
REMARK   39  A    between atoms: _119  and  _122
REMARK   40  A    between atoms: _122  and  _123
REMARK   41  A    between atoms: _129  and  _131
REMARK   42  A    between atoms: _131  and  _132
REMARK   43  A    between atoms: _131  and  _134
REMARK   44  A    between atoms: _134  and  _135
REMARK   45  A    between atoms: _135  and  _136
REMARK   46  A    between atoms: _136  and  _137
REMARK   47  A    between atoms: _146  and  _148
REMARK   48  A    between atoms: _148  and  _149
REMARK   49  A    between atoms: _148  and  _151
REMARK   50  A    between atoms: _151  and  _152
REMARK   51  A    between atoms: _157  and  _158
REMARK   52  A    between atoms: _160  and  _162
REMARK   53  A    between atoms: _162  and  _163
REMARK   54  A    between atoms: _162  and  _165
REMARK   55  A    between atoms: _165  and  _166
REMARK   56  A    between atoms: _168  and  _170
REMARK   57  A    between atoms: _170  and  _171
REMARK   58  A    between atoms: _170  and  _173
REMARK   59  A    between atoms: _173  and  _174
REMARK   60  A    between atoms: _179  and  _180
REMARK   61  A    between atoms: _182  and  _184
REMARK   62  A    between atoms: _184  and  _185
REMARK   63  A    between atoms: _184  and  _187
REMARK   64  A    between atoms: _187  and  _188
REMARK   65  A    between atoms: _191  and  _193
REMARK   66  A    between atoms: _193  and  _194
REMARK   67  A    between atoms: _193  and  _196
REMARK   68  A    between atoms: _196  and  _197
REMARK   69  A    between atoms: _200  and  _202
REMARK   70  A    between atoms: _202  and  _203
REMARK   71  A    between atoms: _202  and  _205
REMARK   72  A    between atoms: _205  and  _206
REMARK   73  A    between atoms: _209  and  _211
REMARK   74  A    between atoms: _211  and  _212
REMARK   75  A    between atoms: _211  and  _214
REMARK   76  A    between atoms: _214  and  _215
REMARK   77  A    between atoms: _221  and  _223
REMARK   78  A    between atoms: _223  and  _224
REMARK   79  A    between atoms: _223  and  _226
REMARK   80  A    between atoms: _226  and  _227
REMARK   81  A    between atoms: _232  and  _233
REMARK   82  A    between atoms: _235  and  _237
REMARK   83  A    between atoms: _237  and  _238
REMARK   84  A    between atoms: _237  and  _240
REMARK   85  A    between atoms: _240  and  _241
REMARK   86  A    between atoms: _244  and  _246
REMARK   87  A    between atoms: _246  and  _247
REMARK   88  A    between atoms: _246  and  _249
REMARK   89  A    between atoms: _249  and  _250
REMARK   90  A    between atoms: _260  and  _262
REMARK   91  A    between atoms: _262  and  _263
REMARK   92  A    between atoms: _262  and  _265
REMARK   93  A    between atoms: _265  and  _266
REMARK   94  A    between atoms: _271  and  _273
REMARK   95  A    between atoms: _273  and  _274
REMARK   96  A    between atoms: _273  and  _276
REMARK   97  A    between atoms: _276  and  _277
REMARK   98  A    between atoms: _281  and  ZN_399
REMARK   99  A    between atoms: _282  and  _284
REMARK  100  A    between atoms: _284  and  _285
REMARK  101  A    between atoms: _284  and  _287
REMARK  102  A    between atoms: _287  and  _288
REMARK  103  A    between atoms: _291  and  _293
REMARK  104  A    between atoms: _293  and  _294
REMARK  105  A    between atoms: _296  and  _298
REMARK  106  A    between atoms: _298  and  _299
REMARK  107  A    between atoms: _298  and  _301
REMARK  108  A    between atoms: _301  and  _302
REMARK  109  A    between atoms: _305  and  _307
REMARK  110  A    between atoms: _307  and  _308
REMARK  111  A    between atoms: _307  and  _310
REMARK  112  A    between atoms: _310  and  _311
REMARK  113  A    between atoms: _314  and  _316
REMARK  114  A    between atoms: _316  and  _317
REMARK  115  A    between atoms: _320  and  _322
REMARK  116  A    between atoms: _322  and  _323
REMARK  117  A    between atoms: _326  and  _328
REMARK  118  A    between atoms: _328  and  _329
REMARK  119  A    between atoms: _328  and  _331
REMARK  120  A    between atoms: _331  and  _332
REMARK  121  A    between atoms: _337  and  _338
REMARK  122  A    between atoms: _340  and  _342
REMARK  123  A    between atoms: _342  and  _343
REMARK  124  A    between atoms: _342  and  _345
REMARK  125  A    between atoms: _345  and  _346
REMARK  126  A    between atoms: _349  and  _351
REMARK  127  A    between atoms: _351  and  _352
REMARK  128  A    between atoms: _351  and  _354
REMARK  129  A    between atoms: _354  and  _355
REMARK  130  A    between atoms: _358  and  _360
REMARK  131  A    between atoms: _360  and  _361
REMARK  132  A    between atoms: _360  and  _363
REMARK  133  A    between atoms: _363  and  _364
REMARK  134  A    between atoms: _364  and  _365
REMARK  135  A    between atoms: _368  and  _370
REMARK  136  A    between atoms: _370  and  _371
REMARK  137  A    between atoms: _370  and  _373
REMARK  138  A    between atoms: _373  and  _374
REMARK  139  A    between atoms: _374  and  _375
REMARK  140  A    between atoms: _375  and  _376
REMARK  141  A    between atoms: _385  and  _387
REMARK  142  A    between atoms: _387  and  _388
REMARK  143  A    between atoms: _390  and  _392
REMARK  144  A    between atoms: _392  and  _393
REMARK  145  A    between atoms: _392  and  _395
REMARK  146  A    between atoms: _395  and  _396
REMARK                            x       y       z     vdW  Elec       q    Type
REMARK                         _______ _______ _______ _____ _____    ______ ____
ROOT
ATOM      1  O   HOH     1      29.370  71.874  12.423  0.00  0.00    +0.000 OA
ENDROOT
TORSDOF 0
REMARK  Name = ../refined-set-2016/3d4z/3d4z_pocket.pdb
REMARK  146 active torsions:
REMARK  status: ('A' for Active; 'I' for Inactive)
REMARK    1  A    between atoms: _1  and  _3
REMARK    2  A    between atoms: _14  and  _17
REMARK    3  A    between atoms: _17  and  _18
REMARK    4  A    between atoms: _25  and  _26
REMARK    5  A    between atoms: _33  and  _34
REMARK    6  A    between atoms: _39  and  _41
REMARK    7  A    between atoms: _41  and  _42
REMARK    8  A    between atoms: _44  and  _46
REMARK    9  A    between atoms: _46  and  _47
REMARK   10  A    between atoms: _46  and  _49
REMARK   11  A    between atoms: _49  and  _50
REMARK   12  A    between atoms: _60  and  _62
REMARK   13  A    between atoms: _62  and  _63
REMARK   14  A    between atoms: _62  and  _65
REMARK   15  A    between atoms: _65  and  _66
REMARK   16  A    between atoms: _69  and  _71
REMARK   17  A    between atoms: _71  and  _72
REMARK   18  A    between atoms: _71  and  _74
REMARK   19  A    between atoms: _74  and  _75
REMARK   20  A    between atoms: _80  and  _81
REMARK   21  A    between atoms: _83  and  _85
REMARK   22  A    between atoms: _85  and  _86
REMARK   23  A    between atoms: _85  and  _88
REMARK   24  A    between atoms: _88  and  _89
REMARK   25  A    between atoms: _89  and  _90
REMARK   26  A    between atoms: _92  and  _94
REMARK   27  A    between atoms: _94  and  _95
REMARK   28  A    between atoms: _94  and  _97
REMARK   29  A    between atoms: _97  and  _98
REMARK   30  A    between atoms: _101  and  _103
REMARK   31  A    between atoms: _103  and  _104
REMARK   32  A    between atoms: _103  and  _106
REMARK   33  A    between atoms: _106  and  _107
REMARK   34  A    between atoms: _107  and  _109
REMARK   35  A    between atoms: _109  and  ZN_399
REMARK   36  A    between atoms: _111  and  _112
REMARK   37  A    between atoms: _117  and  _119
REMARK   38  A    between atoms: _119  and  _120
REMARK   39  A    between atoms: _119  and  _122
REMARK   40  A    between atoms: _122  and  _123
REMARK   41  A    between atoms: _129  and  _131
REMARK   42  A    between atoms: _131  and  _132
REMARK   43  A    between atoms: _131  and  _134
REMARK   44  A    between atoms: _134  and  _135
REMARK   45  A    between atoms: _135  and  _136
REMARK   46  A    between atoms: _136  and  _137
REMARK   47  A    between atoms: _146  and  _148
REMARK   48  A    between atoms: _148  and  _149
REMARK   49  A    between atoms: _148  and  _151
REMARK   50  A    between atoms: _151  and  _152
REMARK   51  A    between atoms: _157  and  _158
REMARK   52  A    between atoms: _160  and  _162
REMARK   53  A    between atoms: _162  and  _163
REMARK   54  A    between atoms: _162  and  _165
REMARK   55  A    between atoms: _165  and  _166
REMARK   56  A    between atoms: _168  and  _170
REMARK   57  A    between atoms: _170  and  _171
REMARK   58  A    between atoms: _170  and  _173
REMARK   59  A    between atoms: _173  and  _174
REMARK   60  A    between atoms: _179  and  _180
REMARK   61  A    between atoms: _182  and  _184
REMARK   62  A    between atoms: _184  and  _185
REMARK   63  A    between atoms: _184  and  _187
REMARK   64  A    between atoms: _187  and  _188
REMARK   65  A    between atoms: _191  and  _193
REMARK   66  A    between atoms: _193  and  _194
REMARK   67  A    between atoms: _193  and  _196
REMARK   68  A    between atoms: _196  and  _197
REMARK   69  A    between atoms: _200  and  _202
REMARK   70  A    between atoms: _202  and  _203
REMARK   71  A    between atoms: _202  and  _205
REMARK   72  A    between atoms: _205  and  _206
REMARK   73  A    between atoms: _209  and  _211
REMARK   74  A    between atoms: _211  and  _212
REMARK   75  A    between atoms: _211  and  _214
REMARK   76  A    between atoms: _214  and  _215
REMARK   77  A    between atoms: _221  and  _223
REMARK   78  A    between atoms: _223  and  _224
REMARK   79  A    between atoms: _223  and  _226
REMARK   80  A    between atoms: _226  and  _227
REMARK   81  A    between atoms: _232  and  _233
REMARK   82  A    between atoms: _235  and  _237
REMARK   83  A    between atoms: _237  and  _238
REMARK   84  A    between atoms: _237  and  _240
REMARK   85  A    between atoms: _240  and  _241
REMARK   86  A    between atoms: _244  and  _246
REMARK   87  A    between atoms: _246  and  _247
REMARK   88  A    between atoms: _246  and  _249
REMARK   89  A    between atoms: _249  and  _250
REMARK   90  A    between atoms: _260  and  _262
REMARK   91  A    between atoms: _262  and  _263
REMARK   92  A    between atoms: _262  and  _265
REMARK   93  A    between atoms: _265  and  _266
REMARK   94  A    between atoms: _271  and  _273
REMARK   95  A    between atoms: _273  and  _274
REMARK   96  A    between atoms: _273  and  _276
REMARK   97  A    between atoms: _276  and  _277
REMARK   98  A    between atoms: _281  and  ZN_399
REMARK   99  A    between atoms: _282  and  _284
REMARK  100  A    between atoms: _284  and  _285
REMARK  101  A    between atoms: _284  and  _287
REMARK  102  A    between atoms: _287  and  _288
REMARK  103  A    between atoms: _291  and  _293
REMARK  104  A    between atoms: _293  and  _294
REMARK  105  A    between atoms: _296  and  _298
REMARK  106  A    between atoms: _298  and  _299
REMARK  107  A    between atoms: _298  and  _301
REMARK  108  A    between atoms: _301  and  _302
REMARK  109  A    between atoms: _305  and  _307
REMARK  110  A    between atoms: _307  and  _308
REMARK  111  A    between atoms: _307  and  _310
REMARK  112  A    between atoms: _310  and  _311
REMARK  113  A    between atoms: _314  and  _316
REMARK  114  A    between atoms: _316  and  _317
REMARK  115  A    between atoms: _320  and  _322
REMARK  116  A    between atoms: _322  and  _323
REMARK  117  A    between atoms: _326  and  _328
REMARK  118  A    between atoms: _328  and  _329
REMARK  119  A    between atoms: _328  and  _331
REMARK  120  A    between atoms: _331  and  _332
REMARK  121  A    between atoms: _337  and  _338
REMARK  122  A    between atoms: _340  and  _342
REMARK  123  A    between atoms: _342  and  _343
REMARK  124  A    between atoms: _342  and  _345
REMARK  125  A    between atoms: _345  and  _346
REMARK  126  A    between atoms: _349  and  _351
REMARK  127  A    between atoms: _351  and  _352
REMARK  128  A    between atoms: _351  and  _354
REMARK  129  A    between atoms: _354  and  _355
REMARK  130  A    between atoms: _358  and  _360
REMARK  131  A    between atoms: _360  and  _361
REMARK  132  A    between atoms: _360  and  _363
REMARK  133  A    between atoms: _363  and  _364
REMARK  134  A    between atoms: _364  and  _365
REMARK  135  A    between atoms: _368  and  _370
REMARK  136  A    between atoms: _370  and  _371
REMARK  137  A    between atoms: _370  and  _373
REMARK  138  A    between atoms: _373  and  _374
REMARK  139  A    between atoms: _374  and  _375
REMARK  140  A    between atoms: _375  and  _376
REMARK  141  A    between atoms: _385  and  _387
REMARK  142  A    between atoms: _387  and  _388
REMARK  143  A    between atoms: _390  and  _392
REMARK  144  A    between atoms: _392  and  _393
REMARK  145  A    between atoms: _392  and  _395
REMARK  146  A    between atoms: _395  and  _396
REMARK                            x       y       z     vdW  Elec       q    Type
REMARK                         _______ _______ _______ _____ _____    ______ ____
ROOT
ATOM      1  O   HOH     1      31.543  70.749  13.815  0.00  0.00    +0.000 OA
ENDROOT
TORSDOF 0
REMARK  Name = ../refined-set-2016/3d4z/3d4z_pocket.pdb
REMARK  146 active torsions:
REMARK  status: ('A' for Active; 'I' for Inactive)
REMARK    1  A    between atoms: _1  and  _3
REMARK    2  A    between atoms: _14  and  _17
REMARK    3  A    between atoms: _17  and  _18
REMARK    4  A    between atoms: _25  and  _26
REMARK    5  A    between atoms: _33  and  _34
REMARK    6  A    between atoms: _39  and  _41
REMARK    7  A    between atoms: _41  and  _42
REMARK    8  A    between atoms: _44  and  _46
REMARK    9  A    between atoms: _46  and  _47
REMARK   10  A    between atoms: _46  and  _49
REMARK   11  A    between atoms: _49  and  _50
REMARK   12  A    between atoms: _60  and  _62
REMARK   13  A    between atoms: _62  and  _63
REMARK   14  A    between atoms: _62  and  _65
REMARK   15  A    between atoms: _65  and  _66
REMARK   16  A    between atoms: _69  and  _71
REMARK   17  A    between atoms: _71  and  _72
REMARK   18  A    between atoms: _71  and  _74
REMARK   19  A    between atoms: _74  and  _75
REMARK   20  A    between atoms: _80  and  _81
REMARK   21  A    between atoms: _83  and  _85
REMARK   22  A    between atoms: _85  and  _86
REMARK   23  A    between atoms: _85  and  _88
REMARK   24  A    between atoms: _88  and  _89
REMARK   25  A    between atoms: _89  and  _90
REMARK   26  A    between atoms: _92  and  _94
REMARK   27  A    between atoms: _94  and  _95
REMARK   28  A    between atoms: _94  and  _97
REMARK   29  A    between atoms: _97  and  _98
REMARK   30  A    between atoms: _101  and  _103
REMARK   31  A    between atoms: _103  and  _104
REMARK   32  A    between atoms: _103  and  _106
REMARK   33  A    between atoms: _106  and  _107
REMARK   34  A    between atoms: _107  and  _109
REMARK   35  A    between atoms: _109  and  ZN_399
REMARK   36  A    between atoms: _111  and  _112
REMARK   37  A    between atoms: _117  and  _119
REMARK   38  A    between atoms: _119  and  _120
REMARK   39  A    between atoms: _119  and  _122
REMARK   40  A    between atoms: _122  and  _123
REMARK   41  A    between atoms: _129  and  _131
REMARK   42  A    between atoms: _131  and  _132
REMARK   43  A    between atoms: _131  and  _134
REMARK   44  A    between atoms: _134  and  _135
REMARK   45  A    between atoms: _135  and  _136
REMARK   46  A    between atoms: _136  and  _137
REMARK   47  A    between atoms: _146  and  _148
REMARK   48  A    between atoms: _148  and  _149
REMARK   49  A    between atoms: _148  and  _151
REMARK   50  A    between atoms: _151  and  _152
REMARK   51  A    between atoms: _157  and  _158
REMARK   52  A    between atoms: _160  and  _162
REMARK   53  A    between atoms: _162  and  _163
REMARK   54  A    between atoms: _162  and  _165
REMARK   55  A    between atoms: _165  and  _166
REMARK   56  A    between atoms: _168  and  _170
REMARK   57  A    between atoms: _170  and  _171
REMARK   58  A    between atoms: _170  and  _173
REMARK   59  A    between atoms: _173  and  _174
REMARK   60  A    between atoms: _179  and  _180
REMARK   61  A    between atoms: _182  and  _184
REMARK   62  A    between atoms: _184  and  _185
REMARK   63  A    between atoms: _184  and  _187
REMARK   64  A    between atoms: _187  and  _188
REMARK   65  A    between atoms: _191  and  _193
REMARK   66  A    between atoms: _193  and  _194
REMARK   67  A    between atoms: _193  and  _196
REMARK   68  A    between atoms: _196  and  _197
REMARK   69  A    between atoms: _200  and  _202
REMARK   70  A    between atoms: _202  and  _203
REMARK   71  A    between atoms: _202  and  _205
REMARK   72  A    between atoms: _205  and  _206
REMARK   73  A    between atoms: _209  and  _211
REMARK   74  A    between atoms: _211  and  _212
REMARK   75  A    between atoms: _211  and  _214
REMARK   76  A    between atoms: _214  and  _215
REMARK   77  A    between atoms: _221  and  _223
REMARK   78  A    between atoms: _223  and  _224
REMARK   79  A    between atoms: _223  and  _226
REMARK   80  A    between atoms: _226  and  _227
REMARK   81  A    between atoms: _232  and  _233
REMARK   82  A    between atoms: _235  and  _237
REMARK   83  A    between atoms: _237  and  _238
REMARK   84  A    between atoms: _237  and  _240
REMARK   85  A    between atoms: _240  and  _241
REMARK   86  A    between atoms: _244  and  _246
REMARK   87  A    between atoms: _246  and  _247
REMARK   88  A    between atoms: _246  and  _249
REMARK   89  A    between atoms: _249  and  _250
REMARK   90  A    between atoms: _260  and  _262
REMARK   91  A    between atoms: _262  and  _263
REMARK   92  A    between atoms: _262  and  _265
REMARK   93  A    between atoms: _265  and  _266
REMARK   94  A    between atoms: _271  and  _273
REMARK   95  A    between atoms: _273  and  _274
REMARK   96  A    between atoms: _273  and  _276
REMARK   97  A    between atoms: _276  and  _277
REMARK   98  A    between atoms: _281  and  ZN_399
REMARK   99  A    between atoms: _282  and  _284
REMARK  100  A    between atoms: _284  and  _285
REMARK  101  A    between atoms: _284  and  _287
REMARK  102  A    between atoms: _287  and  _288
REMARK  103  A    between atoms: _291  and  _293
REMARK  104  A    between atoms: _293  and  _294
REMARK  105  A    between atoms: _296  and  _298
REMARK  106  A    between atoms: _298  and  _299
REMARK  107  A    between atoms: _298  and  _301
REMARK  108  A    between atoms: _301  and  _302
REMARK  109  A    between atoms: _305  and  _307
REMARK  110  A    between atoms: _307  and  _308
REMARK  111  A    between atoms: _307  and  _310
REMARK  112  A    between atoms: _310  and  _311
REMARK  113  A    between atoms: _314  and  _316
REMARK  114  A    between atoms: _316  and  _317
REMARK  115  A    between atoms: _320  and  _322
REMARK  116  A    between atoms: _322  and  _323
REMARK  117  A    between atoms: _326  and  _328
REMARK  118  A    between atoms: _328  and  _329
REMARK  119  A    between atoms: _328  and  _331
REMARK  120  A    between atoms: _331  and  _332
REMARK  121  A    between atoms: _337  and  _338
REMARK  122  A    between atoms: _340  and  _342
REMARK  123  A    between atoms: _342  and  _343
REMARK  124  A    between atoms: _342  and  _345
REMARK  125  A    between atoms: _345  and  _346
REMARK  126  A    between atoms: _349  and  _351
REMARK  127  A    between atoms: _351  and  _352
REMARK  128  A    between atoms: _351  and  _354
REMARK  129  A    between atoms: _354  and  _355
REMARK  130  A    between atoms: _358  and  _360
REMARK  131  A    between atoms: _360  and  _361
REMARK  132  A    between atoms: _360  and  _363
REMARK  133  A    between atoms: _363  and  _364
REMARK  134  A    between atoms: _364  and  _365
REMARK  135  A    between atoms: _368  and  _370
REMARK  136  A    between atoms: _370  and  _371
REMARK  137  A    between atoms: _370  and  _373
REMARK  138  A    between atoms: _373  and  _374
REMARK  139  A    between atoms: _374  and  _375
REMARK  140  A    between atoms: _375  and  _376
REMARK  141  A    between atoms: _385  and  _387
REMARK  142  A    between atoms: _387  and  _388
REMARK  143  A    between atoms: _390  and  _392
REMARK  144  A    between atoms: _392  and  _393
REMARK  145  A    between atoms: _392  and  _395
REMARK  146  A    between atoms: _395  and  _396
REMARK                            x       y       z     vdW  Elec       q    Type
REMARK                         _______ _______ _______ _____ _____    ______ ____
ROOT
ATOM      1  O   HOH     1      34.335  70.023  13.301  0.00  0.00    +0.000 OA
ENDROOT
TORSDOF 0
REMARK  Name = ../refined-set-2016/3d4z/3d4z_pocket.pdb
REMARK  146 active torsions:
REMARK  status: ('A' for Active; 'I' for Inactive)
REMARK    1  A    between atoms: _1  and  _3
REMARK    2  A    between atoms: _14  and  _17
REMARK    3  A    between atoms: _17  and  _18
REMARK    4  A    between atoms: _25  and  _26
REMARK    5  A    between atoms: _33  and  _34
REMARK    6  A    between atoms: _39  and  _41
REMARK    7  A    between atoms: _41  and  _42
REMARK    8  A    between atoms: _44  and  _46
REMARK    9  A    between atoms: _46  and  _47
REMARK   10  A    between atoms: _46  and  _49
REMARK   11  A    between atoms: _49  and  _50
REMARK   12  A    between atoms: _60  and  _62
REMARK   13  A    between atoms: _62  and  _63
REMARK   14  A    between atoms: _62  and  _65
REMARK   15  A    between atoms: _65  and  _66
REMARK   16  A    between atoms: _69  and  _71
REMARK   17  A    between atoms: _71  and  _72
REMARK   18  A    between atoms: _71  and  _74
REMARK   19  A    between atoms: _74  and  _75
REMARK   20  A    between atoms: _80  and  _81
REMARK   21  A    between atoms: _83  and  _85
REMARK   22  A    between atoms: _85  and  _86
REMARK   23  A    between atoms: _85  and  _88
REMARK   24  A    between atoms: _88  and  _89
REMARK   25  A    between atoms: _89  and  _90
REMARK   26  A    between atoms: _92  and  _94
REMARK   27  A    between atoms: _94  and  _95
REMARK   28  A    between atoms: _94  and  _97
REMARK   29  A    between atoms: _97  and  _98
REMARK   30  A    between atoms: _101  and  _103
REMARK   31  A    between atoms: _103  and  _104
REMARK   32  A    between atoms: _103  and  _106
REMARK   33  A    between atoms: _106  and  _107
REMARK   34  A    between atoms: _107  and  _109
REMARK   35  A    between atoms: _109  and  ZN_399
REMARK   36  A    between atoms: _111  and  _112
REMARK   37  A    between atoms: _117  and  _119
REMARK   38  A    between atoms: _119  and  _120
REMARK   39  A    between atoms: _119  and  _122
REMARK   40  A    between atoms: _122  and  _123
REMARK   41  A    between atoms: _129  and  _131
REMARK   42  A    between atoms: _131  and  _132
REMARK   43  A    between atoms: _131  and  _134
REMARK   44  A    between atoms: _134  and  _135
REMARK   45  A    between atoms: _135  and  _136
REMARK   46  A    between atoms: _136  and  _137
REMARK   47  A    between atoms: _146  and  _148
REMARK   48  A    between atoms: _148  and  _149
REMARK   49  A    between atoms: _148  and  _151
REMARK   50  A    between atoms: _151  and  _152
REMARK   51  A    between atoms: _157  and  _158
REMARK   52  A    between atoms: _160  and  _162
REMARK   53  A    between atoms: _162  and  _163
REMARK   54  A    between atoms: _162  and  _165
REMARK   55  A    between atoms: _165  and  _166
REMARK   56  A    between atoms: _168  and  _170
REMARK   57  A    between atoms: _170  and  _171
REMARK   58  A    between atoms: _170  and  _173
REMARK   59  A    between atoms: _173  and  _174
REMARK   60  A    between atoms: _179  and  _180
REMARK   61  A    between atoms: _182  and  _184
REMARK   62  A    between atoms: _184  and  _185
REMARK   63  A    between atoms: _184  and  _187
REMARK   64  A    between atoms: _187  and  _188
REMARK   65  A    between atoms: _191  and  _193
REMARK   66  A    between atoms: _193  and  _194
REMARK   67  A    between atoms: _193  and  _196
REMARK   68  A    between atoms: _196  and  _197
REMARK   69  A    between atoms: _200  and  _202
REMARK   70  A    between atoms: _202  and  _203
REMARK   71  A    between atoms: _202  and  _205
REMARK   72  A    between atoms: _205  and  _206
REMARK   73  A    between atoms: _209  and  _211
REMARK   74  A    between atoms: _211  and  _212
REMARK   75  A    between atoms: _211  and  _214
REMARK   76  A    between atoms: _214  and  _215
REMARK   77  A    between atoms: _221  and  _223
REMARK   78  A    between atoms: _223  and  _224
REMARK   79  A    between atoms: _223  and  _226
REMARK   80  A    between atoms: _226  and  _227
REMARK   81  A    between atoms: _232  and  _233
REMARK   82  A    between atoms: _235  and  _237
REMARK   83  A    between atoms: _237  and  _238
REMARK   84  A    between atoms: _237  and  _240
REMARK   85  A    between atoms: _240  and  _241
REMARK   86  A    between atoms: _244  and  _246
REMARK   87  A    between atoms: _246  and  _247
REMARK   88  A    between atoms: _246  and  _249
REMARK   89  A    between atoms: _249  and  _250
REMARK   90  A    between atoms: _260  and  _262
REMARK   91  A    between atoms: _262  and  _263
REMARK   92  A    between atoms: _262  and  _265
REMARK   93  A    between atoms: _265  and  _266
REMARK   94  A    between atoms: _271  and  _273
REMARK   95  A    between atoms: _273  and  _274
REMARK   96  A    between atoms: _273  and  _276
REMARK   97  A    between atoms: _276  and  _277
REMARK   98  A    between atoms: _281  and  ZN_399
REMARK   99  A    between atoms: _282  and  _284
REMARK  100  A    between atoms: _284  and  _285
REMARK  101  A    between atoms: _284  and  _287
REMARK  102  A    between atoms: _287  and  _288
REMARK  103  A    between atoms: _291  and  _293
REMARK  104  A    between atoms: _293  and  _294
REMARK  105  A    between atoms: _296  and  _298
REMARK  106  A    between atoms: _298  and  _299
REMARK  107  A    between atoms: _298  and  _301
REMARK  108  A    between atoms: _301  and  _302
REMARK  109  A    between atoms: _305  and  _307
REMARK  110  A    between atoms: _307  and  _308
REMARK  111  A    between atoms: _307  and  _310
REMARK  112  A    between atoms: _310  and  _311
REMARK  113  A    between atoms: _314  and  _316
REMARK  114  A    between atoms: _316  and  _317
REMARK  115  A    between atoms: _320  and  _322
REMARK  116  A    between atoms: _322  and  _323
REMARK  117  A    between atoms: _326  and  _328
REMARK  118  A    between atoms: _328  and  _329
REMARK  119  A    between atoms: _328  and  _331
REMARK  120  A    between atoms: _331  and  _332
REMARK  121  A    between atoms: _337  and  _338
REMARK  122  A    between atoms: _340  and  _342
REMARK  123  A    between atoms: _342  and  _343
REMARK  124  A    between atoms: _342  and  _345
REMARK  125  A    between atoms: _345  and  _346
REMARK  126  A    between atoms: _349  and  _351
REMARK  127  A    between atoms: _351  and  _352
REMARK  128  A    between atoms: _351  and  _354
REMARK  129  A    between atoms: _354  and  _355
REMARK  130  A    between atoms: _358  and  _360
REMARK  131  A    between atoms: _360  and  _361
REMARK  132  A    between atoms: _360  and  _363
REMARK  133  A    between atoms: _363  and  _364
REMARK  134  A    between atoms: _364  and  _365
REMARK  135  A    between atoms: _368  and  _370
REMARK  136  A    between atoms: _370  and  _371
REMARK  137  A    between atoms: _370  and  _373
REMARK  138  A    between atoms: _373  and  _374
REMARK  139  A    between atoms: _374  and  _375
REMARK  140  A    between atoms: _375  and  _376
REMARK  141  A    between atoms: _385  and  _387
REMARK  142  A    between atoms: _387  and  _388
REMARK  143  A    between atoms: _390  and  _392
REMARK  144  A    between atoms: _392  and  _393
REMARK  145  A    between atoms: _392  and  _395
REMARK  146  A    between atoms: _395  and  _396
REMARK                            x       y       z     vdW  Elec       q    Type
REMARK                         _______ _______ _______ _____ _____    ______ ____
ROOT
ATOM      1  O   HOH     1      34.105  67.373  12.539  0.00  0.00    +0.000 OA
ENDROOT
TORSDOF 0
REMARK  Name = ../refined-set-2016/3d4z/3d4z_pocket.pdb
REMARK  146 active torsions:
REMARK  status: ('A' for Active; 'I' for Inactive)
REMARK    1  A    between atoms: _1  and  _3
REMARK    2  A    between atoms: _14  and  _17
REMARK    3  A    between atoms: _17  and  _18
REMARK    4  A    between atoms: _25  and  _26
REMARK    5  A    between atoms: _33  and  _34
REMARK    6  A    between atoms: _39  and  _41
REMARK    7  A    between atoms: _41  and  _42
REMARK    8  A    between atoms: _44  and  _46
REMARK    9  A    between atoms: _46  and  _47
REMARK   10  A    between atoms: _46  and  _49
REMARK   11  A    between atoms: _49  and  _50
REMARK   12  A    between atoms: _60  and  _62
REMARK   13  A    between atoms: _62  and  _63
REMARK   14  A    between atoms: _62  and  _65
REMARK   15  A    between atoms: _65  and  _66
REMARK   16  A    between atoms: _69  and  _71
REMARK   17  A    between atoms: _71  and  _72
REMARK   18  A    between atoms: _71  and  _74
REMARK   19  A    between atoms: _74  and  _75
REMARK   20  A    between atoms: _80  and  _81
REMARK   21  A    between atoms: _83  and  _85
REMARK   22  A    between atoms: _85  and  _86
REMARK   23  A    between atoms: _85  and  _88
REMARK   24  A    between atoms: _88  and  _89
REMARK   25  A    between atoms: _89  and  _90
REMARK   26  A    between atoms: _92  and  _94
REMARK   27  A    between atoms: _94  and  _95
REMARK   28  A    between atoms: _94  and  _97
REMARK   29  A    between atoms: _97  and  _98
REMARK   30  A    between atoms: _101  and  _103
REMARK   31  A    between atoms: _103  and  _104
REMARK   32  A    between atoms: _103  and  _106
REMARK   33  A    between atoms: _106  and  _107
REMARK   34  A    between atoms: _107  and  _109
REMARK   35  A    between atoms: _109  and  ZN_399
REMARK   36  A    between atoms: _111  and  _112
REMARK   37  A    between atoms: _117  and  _119
REMARK   38  A    between atoms: _119  and  _120
REMARK   39  A    between atoms: _119  and  _122
REMARK   40  A    between atoms: _122  and  _123
REMARK   41  A    between atoms: _129  and  _131
REMARK   42  A    between atoms: _131  and  _132
REMARK   43  A    between atoms: _131  and  _134
REMARK   44  A    between atoms: _134  and  _135
REMARK   45  A    between atoms: _135  and  _136
REMARK   46  A    between atoms: _136  and  _137
REMARK   47  A    between atoms: _146  and  _148
REMARK   48  A    between atoms: _148  and  _149
REMARK   49  A    between atoms: _148  and  _151
REMARK   50  A    between atoms: _151  and  _152
REMARK   51  A    between atoms: _157  and  _158
REMARK   52  A    between atoms: _160  and  _162
REMARK   53  A    between atoms: _162  and  _163
REMARK   54  A    between atoms: _162  and  _165
REMARK   55  A    between atoms: _165  and  _166
REMARK   56  A    between atoms: _168  and  _170
REMARK   57  A    between atoms: _170  and  _171
REMARK   58  A    between atoms: _170  and  _173
REMARK   59  A    between atoms: _173  and  _174
REMARK   60  A    between atoms: _179  and  _180
REMARK   61  A    between atoms: _182  and  _184
REMARK   62  A    between atoms: _184  and  _185
REMARK   63  A    between atoms: _184  and  _187
REMARK   64  A    between atoms: _187  and  _188
REMARK   65  A    between atoms: _191  and  _193
REMARK   66  A    between atoms: _193  and  _194
REMARK   67  A    between atoms: _193  and  _196
REMARK   68  A    between atoms: _196  and  _197
REMARK   69  A    between atoms: _200  and  _202
REMARK   70  A    between atoms: _202  and  _203
REMARK   71  A    between atoms: _202  and  _205
REMARK   72  A    between atoms: _205  and  _206
REMARK   73  A    between atoms: _209  and  _211
REMARK   74  A    between atoms: _211  and  _212
REMARK   75  A    between atoms: _211  and  _214
REMARK   76  A    between atoms: _214  and  _215
REMARK   77  A    between atoms: _221  and  _223
REMARK   78  A    between atoms: _223  and  _224
REMARK   79  A    between atoms: _223  and  _226
REMARK   80  A    between atoms: _226  and  _227
REMARK   81  A    between atoms: _232  and  _233
REMARK   82  A    between atoms: _235  and  _237
REMARK   83  A    between atoms: _237  and  _238
REMARK   84  A    between atoms: _237  and  _240
REMARK   85  A    between atoms: _240  and  _241
REMARK   86  A    between atoms: _244  and  _246
REMARK   87  A    between atoms: _246  and  _247
REMARK   88  A    between atoms: _246  and  _249
REMARK   89  A    between atoms: _249  and  _250
REMARK   90  A    between atoms: _260  and  _262
REMARK   91  A    between atoms: _262  and  _263
REMARK   92  A    between atoms: _262  and  _265
REMARK   93  A    between atoms: _265  and  _266
REMARK   94  A    between atoms: _271  and  _273
REMARK   95  A    between atoms: _273  and  _274
REMARK   96  A    between atoms: _273  and  _276
REMARK   97  A    between atoms: _276  and  _277
REMARK   98  A    between atoms: _281  and  ZN_399
REMARK   99  A    between atoms: _282  and  _284
REMARK  100  A    between atoms: _284  and  _285
REMARK  101  A    between atoms: _284  and  _287
REMARK  102  A    between atoms: _287  and  _288
REMARK  103  A    between atoms: _291  and  _293
REMARK  104  A    between atoms: _293  and  _294
REMARK  105  A    between atoms: _296  and  _298
REMARK  106  A    between atoms: _298  and  _299
REMARK  107  A    between atoms: _298  and  _301
REMARK  108  A    between atoms: _301  and  _302
REMARK  109  A    between atoms: _305  and  _307
REMARK  110  A    between atoms: _307  and  _308
REMARK  111  A    between atoms: _307  and  _310
REMARK  112  A    between atoms: _310  and  _311
REMARK  113  A    between atoms: _314  and  _316
REMARK  114  A    between atoms: _316  and  _317
REMARK  115  A    between atoms: _320  and  _322
REMARK  116  A    between atoms: _322  and  _323
REMARK  117  A    between atoms: _326  and  _328
REMARK  118  A    between atoms: _328  and  _329
REMARK  119  A    between atoms: _328  and  _331
REMARK  120  A    between atoms: _331  and  _332
REMARK  121  A    between atoms: _337  and  _338
REMARK  122  A    between atoms: _340  and  _342
REMARK  123  A    between atoms: _342  and  _343
REMARK  124  A    between atoms: _342  and  _345
REMARK  125  A    between atoms: _345  and  _346
REMARK  126  A    between atoms: _349  and  _351
REMARK  127  A    between atoms: _351  and  _352
REMARK  128  A    between atoms: _351  and  _354
REMARK  129  A    between atoms: _354  and  _355
REMARK  130  A    between atoms: _358  and  _360
REMARK  131  A    between atoms: _360  and  _361
REMARK  132  A    between atoms: _360  and  _363
REMARK  133  A    between atoms: _363  and  _364
REMARK  134  A    between atoms: _364  and  _365
REMARK  135  A    between atoms: _368  and  _370
REMARK  136  A    between atoms: _370  and  _371
REMARK  137  A    between atoms: _370  and  _373
REMARK  138  A    between atoms: _373  and  _374
REMARK  139  A    between atoms: _374  and  _375
REMARK  140  A    between atoms: _375  and  _376
REMARK  141  A    between atoms: _385  and  _387
REMARK  142  A    between atoms: _387  and  _388
REMARK  143  A    between atoms: _390  and  _392
REMARK  144  A    between atoms: _392  and  _393
REMARK  145  A    between atoms: _392  and  _395
REMARK  146  A    between atoms: _395  and  _396
REMARK                            x       y       z     vdW  Elec       q    Type
REMARK                         _______ _______ _______ _____ _____    ______ ____
ROOT
ATOM      1  O   HOH     1      28.768  66.490  15.498  0.00  0.00    +0.000 OA
ENDROOT
TORSDOF 0
REMARK  Name = ../refined-set-2016/3d4z/3d4z_pocket.pdb
REMARK  146 active torsions:
REMARK  status: ('A' for Active; 'I' for Inactive)
REMARK    1  A    between atoms: _1  and  _3
REMARK    2  A    between atoms: _14  and  _17
REMARK    3  A    between atoms: _17  and  _18
REMARK    4  A    between atoms: _25  and  _26
REMARK    5  A    between atoms: _33  and  _34
REMARK    6  A    between atoms: _39  and  _41
REMARK    7  A    between atoms: _41  and  _42
REMARK    8  A    between atoms: _44  and  _46
REMARK    9  A    between atoms: _46  and  _47
REMARK   10  A    between atoms: _46  and  _49
REMARK   11  A    between atoms: _49  and  _50
REMARK   12  A    between atoms: _60  and  _62
REMARK   13  A    between atoms: _62  and  _63
REMARK   14  A    between atoms: _62  and  _65
REMARK   15  A    between atoms: _65  and  _66
REMARK   16  A    between atoms: _69  and  _71
REMARK   17  A    between atoms: _71  and  _72
REMARK   18  A    between atoms: _71  and  _74
REMARK   19  A    between atoms: _74  and  _75
REMARK   20  A    between atoms: _80  and  _81
REMARK   21  A    between atoms: _83  and  _85
REMARK   22  A    between atoms: _85  and  _86
REMARK   23  A    between atoms: _85  and  _88
REMARK   24  A    between atoms: _88  and  _89
REMARK   25  A    between atoms: _89  and  _90
REMARK   26  A    between atoms: _92  and  _94
REMARK   27  A    between atoms: _94  and  _95
REMARK   28  A    between atoms: _94  and  _97
REMARK   29  A    between atoms: _97  and  _98
REMARK   30  A    between atoms: _101  and  _103
REMARK   31  A    between atoms: _103  and  _104
REMARK   32  A    between atoms: _103  and  _106
REMARK   33  A    between atoms: _106  and  _107
REMARK   34  A    between atoms: _107  and  _109
REMARK   35  A    between atoms: _109  and  ZN_399
REMARK   36  A    between atoms: _111  and  _112
REMARK   37  A    between atoms: _117  and  _119
REMARK   38  A    between atoms: _119  and  _120
REMARK   39  A    between atoms: _119  and  _122
REMARK   40  A    between atoms: _122  and  _123
REMARK   41  A    between atoms: _129  and  _131
REMARK   42  A    between atoms: _131  and  _132
REMARK   43  A    between atoms: _131  and  _134
REMARK   44  A    between atoms: _134  and  _135
REMARK   45  A    between atoms: _135  and  _136
REMARK   46  A    between atoms: _136  and  _137
REMARK   47  A    between atoms: _146  and  _148
REMARK   48  A    between atoms: _148  and  _149
REMARK   49  A    between atoms: _148  and  _151
REMARK   50  A    between atoms: _151  and  _152
REMARK   51  A    between atoms: _157  and  _158
REMARK   52  A    between atoms: _160  and  _162
REMARK   53  A    between atoms: _162  and  _163
REMARK   54  A    between atoms: _162  and  _165
REMARK   55  A    between atoms: _165  and  _166
REMARK   56  A    between atoms: _168  and  _170
REMARK   57  A    between atoms: _170  and  _171
REMARK   58  A    between atoms: _170  and  _173
REMARK   59  A    between atoms: _173  and  _174
REMARK   60  A    between atoms: _179  and  _180
REMARK   61  A    between atoms: _182  and  _184
REMARK   62  A    between atoms: _184  and  _185
REMARK   63  A    between atoms: _184  and  _187
REMARK   64  A    between atoms: _187  and  _188
REMARK   65  A    between atoms: _191  and  _193
REMARK   66  A    between atoms: _193  and  _194
REMARK   67  A    between atoms: _193  and  _196
REMARK   68  A    between atoms: _196  and  _197
REMARK   69  A    between atoms: _200  and  _202
REMARK   70  A    between atoms: _202  and  _203
REMARK   71  A    between atoms: _202  and  _205
REMARK   72  A    between atoms: _205  and  _206
REMARK   73  A    between atoms: _209  and  _211
REMARK   74  A    between atoms: _211  and  _212
REMARK   75  A    between atoms: _211  and  _214
REMARK   76  A    between atoms: _214  and  _215
REMARK   77  A    between atoms: _221  and  _223
REMARK   78  A    between atoms: _223  and  _224
REMARK   79  A    between atoms: _223  and  _226
REMARK   80  A    between atoms: _226  and  _227
REMARK   81  A    between atoms: _232  and  _233
REMARK   82  A    between atoms: _235  and  _237
REMARK   83  A    between atoms: _237  and  _238
REMARK   84  A    between atoms: _237  and  _240
REMARK   85  A    between atoms: _240  and  _241
REMARK   86  A    between atoms: _244  and  _246
REMARK   87  A    between atoms: _246  and  _247
REMARK   88  A    between atoms: _246  and  _249
REMARK   89  A    between atoms: _249  and  _250
REMARK   90  A    between atoms: _260  and  _262
REMARK   91  A    between atoms: _262  and  _263
REMARK   92  A    between atoms: _262  and  _265
REMARK   93  A    between atoms: _265  and  _266
REMARK   94  A    between atoms: _271  and  _273
REMARK   95  A    between atoms: _273  and  _274
REMARK   96  A    between atoms: _273  and  _276
REMARK   97  A    between atoms: _276  and  _277
REMARK   98  A    between atoms: _281  and  ZN_399
REMARK   99  A    between atoms: _282  and  _284
REMARK  100  A    between atoms: _284  and  _285
REMARK  101  A    between atoms: _284  and  _287
REMARK  102  A    between atoms: _287  and  _288
REMARK  103  A    between atoms: _291  and  _293
REMARK  104  A    between atoms: _293  and  _294
REMARK  105  A    between atoms: _296  and  _298
REMARK  106  A    between atoms: _298  and  _299
REMARK  107  A    between atoms: _298  and  _301
REMARK  108  A    between atoms: _301  and  _302
REMARK  109  A    between atoms: _305  and  _307
REMARK  110  A    between atoms: _307  and  _308
REMARK  111  A    between atoms: _307  and  _310
REMARK  112  A    between atoms: _310  and  _311
REMARK  113  A    between atoms: _314  and  _316
REMARK  114  A    between atoms: _316  and  _317
REMARK  115  A    between atoms: _320  and  _322
REMARK  116  A    between atoms: _322  and  _323
REMARK  117  A    between atoms: _326  and  _328
REMARK  118  A    between atoms: _328  and  _329
REMARK  119  A    between atoms: _328  and  _331
REMARK  120  A    between atoms: _331  and  _332
REMARK  121  A    between atoms: _337  and  _338
REMARK  122  A    between atoms: _340  and  _342
REMARK  123  A    between atoms: _342  and  _343
REMARK  124  A    between atoms: _342  and  _345
REMARK  125  A    between atoms: _345  and  _346
REMARK  126  A    between atoms: _349  and  _351
REMARK  127  A    between atoms: _351  and  _352
REMARK  128  A    between atoms: _351  and  _354
REMARK  129  A    between atoms: _354  and  _355
REMARK  130  A    between atoms: _358  and  _360
REMARK  131  A    between atoms: _360  and  _361
REMARK  132  A    between atoms: _360  and  _363
REMARK  133  A    between atoms: _363  and  _364
REMARK  134  A    between atoms: _364  and  _365
REMARK  135  A    between atoms: _368  and  _370
REMARK  136  A    between atoms: _370  and  _371
REMARK  137  A    between atoms: _370  and  _373
REMARK  138  A    between atoms: _373  and  _374
REMARK  139  A    between atoms: _374  and  _375
REMARK  140  A    between atoms: _375  and  _376
REMARK  141  A    between atoms: _385  and  _387
REMARK  142  A    between atoms: _387  and  _388
REMARK  143  A    between atoms: _390  and  _392
REMARK  144  A    between atoms: _392  and  _393
REMARK  145  A    between atoms: _392  and  _395
REMARK  146  A    between atoms: _395  and  _396
REMARK                            x       y       z     vdW  Elec       q    Type
REMARK                         _______ _______ _______ _____ _____    ______ ____
ROOT
ATOM      1  O   HOH     1      28.316  64.029  14.221  0.00  0.00    +0.000 OA
ENDROOT
TORSDOF 0
REMARK  Name = ../refined-set-2016/3d4z/3d4z_pocket.pdb
REMARK  146 active torsions:
REMARK  status: ('A' for Active; 'I' for Inactive)
REMARK    1  A    between atoms: _1  and  _3
REMARK    2  A    between atoms: _14  and  _17
REMARK    3  A    between atoms: _17  and  _18
REMARK    4  A    between atoms: _25  and  _26
REMARK    5  A    between atoms: _33  and  _34
REMARK    6  A    between atoms: _39  and  _41
REMARK    7  A    between atoms: _41  and  _42
REMARK    8  A    between atoms: _44  and  _46
REMARK    9  A    between atoms: _46  and  _47
REMARK   10  A    between atoms: _46  and  _49
REMARK   11  A    between atoms: _49  and  _50
REMARK   12  A    between atoms: _60  and  _62
REMARK   13  A    between atoms: _62  and  _63
REMARK   14  A    between atoms: _62  and  _65
REMARK   15  A    between atoms: _65  and  _66
REMARK   16  A    between atoms: _69  and  _71
REMARK   17  A    between atoms: _71  and  _72
REMARK   18  A    between atoms: _71  and  _74
REMARK   19  A    between atoms: _74  and  _75
REMARK   20  A    between atoms: _80  and  _81
REMARK   21  A    between atoms: _83  and  _85
REMARK   22  A    between atoms: _85  and  _86
REMARK   23  A    between atoms: _85  and  _88
REMARK   24  A    between atoms: _88  and  _89
REMARK   25  A    between atoms: _89  and  _90
REMARK   26  A    between atoms: _92  and  _94
REMARK   27  A    between atoms: _94  and  _95
REMARK   28  A    between atoms: _94  and  _97
REMARK   29  A    between atoms: _97  and  _98
REMARK   30  A    between atoms: _101  and  _103
REMARK   31  A    between atoms: _103  and  _104
REMARK   32  A    between atoms: _103  and  _106
REMARK   33  A    between atoms: _106  and  _107
REMARK   34  A    between atoms: _107  and  _109
REMARK   35  A    between atoms: _109  and  ZN_399
REMARK   36  A    between atoms: _111  and  _112
REMARK   37  A    between atoms: _117  and  _119
REMARK   38  A    between atoms: _119  and  _120
REMARK   39  A    between atoms: _119  and  _122
REMARK   40  A    between atoms: _122  and  _123
REMARK   41  A    between atoms: _129  and  _131
REMARK   42  A    between atoms: _131  and  _132
REMARK   43  A    between atoms: _131  and  _134
REMARK   44  A    between atoms: _134  and  _135
REMARK   45  A    between atoms: _135  and  _136
REMARK   46  A    between atoms: _136  and  _137
REMARK   47  A    between atoms: _146  and  _148
REMARK   48  A    between atoms: _148  and  _149
REMARK   49  A    between atoms: _148  and  _151
REMARK   50  A    between atoms: _151  and  _152
REMARK   51  A    between atoms: _157  and  _158
REMARK   52  A    between atoms: _160  and  _162
REMARK   53  A    between atoms: _162  and  _163
REMARK   54  A    between atoms: _162  and  _165
REMARK   55  A    between atoms: _165  and  _166
REMARK   56  A    between atoms: _168  and  _170
REMARK   57  A    between atoms: _170  and  _171
REMARK   58  A    between atoms: _170  and  _173
REMARK   59  A    between atoms: _173  and  _174
REMARK   60  A    between atoms: _179  and  _180
REMARK   61  A    between atoms: _182  and  _184
REMARK   62  A    between atoms: _184  and  _185
REMARK   63  A    between atoms: _184  and  _187
REMARK   64  A    between atoms: _187  and  _188
REMARK   65  A    between atoms: _191  and  _193
REMARK   66  A    between atoms: _193  and  _194
REMARK   67  A    between atoms: _193  and  _196
REMARK   68  A    between atoms: _196  and  _197
REMARK   69  A    between atoms: _200  and  _202
REMARK   70  A    between atoms: _202  and  _203
REMARK   71  A    between atoms: _202  and  _205
REMARK   72  A    between atoms: _205  and  _206
REMARK   73  A    between atoms: _209  and  _211
REMARK   74  A    between atoms: _211  and  _212
REMARK   75  A    between atoms: _211  and  _214
REMARK   76  A    between atoms: _214  and  _215
REMARK   77  A    between atoms: _221  and  _223
REMARK   78  A    between atoms: _223  and  _224
REMARK   79  A    between atoms: _223  and  _226
REMARK   80  A    between atoms: _226  and  _227
REMARK   81  A    between atoms: _232  and  _233
REMARK   82  A    between atoms: _235  and  _237
REMARK   83  A    between atoms: _237  and  _238
REMARK   84  A    between atoms: _237  and  _240
REMARK   85  A    between atoms: _240  and  _241
REMARK   86  A    between atoms: _244  and  _246
REMARK   87  A    between atoms: _246  and  _247
REMARK   88  A    between atoms: _246  and  _249
REMARK   89  A    between atoms: _249  and  _250
REMARK   90  A    between atoms: _260  and  _262
REMARK   91  A    between atoms: _262  and  _263
REMARK   92  A    between atoms: _262  and  _265
REMARK   93  A    between atoms: _265  and  _266
REMARK   94  A    between atoms: _271  and  _273
REMARK   95  A    between atoms: _273  and  _274
REMARK   96  A    between atoms: _273  and  _276
REMARK   97  A    between atoms: _276  and  _277
REMARK   98  A    between atoms: _281  and  ZN_399
REMARK   99  A    between atoms: _282  and  _284
REMARK  100  A    between atoms: _284  and  _285
REMARK  101  A    between atoms: _284  and  _287
REMARK  102  A    between atoms: _287  and  _288
REMARK  103  A    between atoms: _291  and  _293
REMARK  104  A    between atoms: _293  and  _294
REMARK  105  A    between atoms: _296  and  _298
REMARK  106  A    between atoms: _298  and  _299
REMARK  107  A    between atoms: _298  and  _301
REMARK  108  A    between atoms: _301  and  _302
REMARK  109  A    between atoms: _305  and  _307
REMARK  110  A    between atoms: _307  and  _308
REMARK  111  A    between atoms: _307  and  _310
REMARK  112  A    between atoms: _310  and  _311
REMARK  113  A    between atoms: _314  and  _316
REMARK  114  A    between atoms: _316  and  _317
REMARK  115  A    between atoms: _320  and  _322
REMARK  116  A    between atoms: _322  and  _323
REMARK  117  A    between atoms: _326  and  _328
REMARK  118  A    between atoms: _328  and  _329
REMARK  119  A    between atoms: _328  and  _331
REMARK  120  A    between atoms: _331  and  _332
REMARK  121  A    between atoms: _337  and  _338
REMARK  122  A    between atoms: _340  and  _342
REMARK  123  A    between atoms: _342  and  _343
REMARK  124  A    between atoms: _342  and  _345
REMARK  125  A    between atoms: _345  and  _346
REMARK  126  A    between atoms: _349  and  _351
REMARK  127  A    between atoms: _351  and  _352
REMARK  128  A    between atoms: _351  and  _354
REMARK  129  A    between atoms: _354  and  _355
REMARK  130  A    between atoms: _358  and  _360
REMARK  131  A    between atoms: _360  and  _361
REMARK  132  A    between atoms: _360  and  _363
REMARK  133  A    between atoms: _363  and  _364
REMARK  134  A    between atoms: _364  and  _365
REMARK  135  A    between atoms: _368  and  _370
REMARK  136  A    between atoms: _370  and  _371
REMARK  137  A    between atoms: _370  and  _373
REMARK  138  A    between atoms: _373  and  _374
REMARK  139  A    between atoms: _374  and  _375
REMARK  140  A    between atoms: _375  and  _376
REMARK  141  A    between atoms: _385  and  _387
REMARK  142  A    between atoms: _387  and  _388
REMARK  143  A    between atoms: _390  and  _392
REMARK  144  A    between atoms: _392  and  _393
REMARK  145  A    between atoms: _392  and  _395
REMARK  146  A    between atoms: _395  and  _396
REMARK                            x       y       z     vdW  Elec       q    Type
REMARK                         _______ _______ _______ _____ _____    ______ ____
ROOT
ATOM      1  O   HOH     1      26.399  63.324  16.941  0.00  0.00    +0.000 OA
ENDROOT
TORSDOF 0
REMARK  Name = ../refined-set-2016/3d4z/3d4z_pocket.pdb
REMARK  146 active torsions:
REMARK  status: ('A' for Active; 'I' for Inactive)
REMARK    1  A    between atoms: _1  and  _3
REMARK    2  A    between atoms: _14  and  _17
REMARK    3  A    between atoms: _17  and  _18
REMARK    4  A    between atoms: _25  and  _26
REMARK    5  A    between atoms: _33  and  _34
REMARK    6  A    between atoms: _39  and  _41
REMARK    7  A    between atoms: _41  and  _42
REMARK    8  A    between atoms: _44  and  _46
REMARK    9  A    between atoms: _46  and  _47
REMARK   10  A    between atoms: _46  and  _49
REMARK   11  A    between atoms: _49  and  _50
REMARK   12  A    between atoms: _60  and  _62
REMARK   13  A    between atoms: _62  and  _63
REMARK   14  A    between atoms: _62  and  _65
REMARK   15  A    between atoms: _65  and  _66
REMARK   16  A    between atoms: _69  and  _71
REMARK   17  A    between atoms: _71  and  _72
REMARK   18  A    between atoms: _71  and  _74
REMARK   19  A    between atoms: _74  and  _75
REMARK   20  A    between atoms: _80  and  _81
REMARK   21  A    between atoms: _83  and  _85
REMARK   22  A    between atoms: _85  and  _86
REMARK   23  A    between atoms: _85  and  _88
REMARK   24  A    between atoms: _88  and  _89
REMARK   25  A    between atoms: _89  and  _90
REMARK   26  A    between atoms: _92  and  _94
REMARK   27  A    between atoms: _94  and  _95
REMARK   28  A    between atoms: _94  and  _97
REMARK   29  A    between atoms: _97  and  _98
REMARK   30  A    between atoms: _101  and  _103
REMARK   31  A    between atoms: _103  and  _104
REMARK   32  A    between atoms: _103  and  _106
REMARK   33  A    between atoms: _106  and  _107
REMARK   34  A    between atoms: _107  and  _109
REMARK   35  A    between atoms: _109  and  ZN_399
REMARK   36  A    between atoms: _111  and  _112
REMARK   37  A    between atoms: _117  and  _119
REMARK   38  A    between atoms: _119  and  _120
REMARK   39  A    between atoms: _119  and  _122
REMARK   40  A    between atoms: _122  and  _123
REMARK   41  A    between atoms: _129  and  _131
REMARK   42  A    between atoms: _131  and  _132
REMARK   43  A    between atoms: _131  and  _134
REMARK   44  A    between atoms: _134  and  _135
REMARK   45  A    between atoms: _135  and  _136
REMARK   46  A    between atoms: _136  and  _137
REMARK   47  A    between atoms: _146  and  _148
REMARK   48  A    between atoms: _148  and  _149
REMARK   49  A    between atoms: _148  and  _151
REMARK   50  A    between atoms: _151  and  _152
REMARK   51  A    between atoms: _157  and  _158
REMARK   52  A    between atoms: _160  and  _162
REMARK   53  A    between atoms: _162  and  _163
REMARK   54  A    between atoms: _162  and  _165
REMARK   55  A    between atoms: _165  and  _166
REMARK   56  A    between atoms: _168  and  _170
REMARK   57  A    between atoms: _170  and  _171
REMARK   58  A    between atoms: _170  and  _173
REMARK   59  A    between atoms: _173  and  _174
REMARK   60  A    between atoms: _179  and  _180
REMARK   61  A    between atoms: _182  and  _184
REMARK   62  A    between atoms: _184  and  _185
REMARK   63  A    between atoms: _184  and  _187
REMARK   64  A    between atoms: _187  and  _188
REMARK   65  A    between atoms: _191  and  _193
REMARK   66  A    between atoms: _193  and  _194
REMARK   67  A    between atoms: _193  and  _196
REMARK   68  A    between atoms: _196  and  _197
REMARK   69  A    between atoms: _200  and  _202
REMARK   70  A    between atoms: _202  and  _203
REMARK   71  A    between atoms: _202  and  _205
REMARK   72  A    between atoms: _205  and  _206
REMARK   73  A    between atoms: _209  and  _211
REMARK   74  A    between atoms: _211  and  _212
REMARK   75  A    between atoms: _211  and  _214
REMARK   76  A    between atoms: _214  and  _215
REMARK   77  A    between atoms: _221  and  _223
REMARK   78  A    between atoms: _223  and  _224
REMARK   79  A    between atoms: _223  and  _226
REMARK   80  A    between atoms: _226  and  _227
REMARK   81  A    between atoms: _232  and  _233
REMARK   82  A    between atoms: _235  and  _237
REMARK   83  A    between atoms: _237  and  _238
REMARK   84  A    between atoms: _237  and  _240
REMARK   85  A    between atoms: _240  and  _241
REMARK   86  A    between atoms: _244  and  _246
REMARK   87  A    between atoms: _246  and  _247
REMARK   88  A    between atoms: _246  and  _249
REMARK   89  A    between atoms: _249  and  _250
REMARK   90  A    between atoms: _260  and  _262
REMARK   91  A    between atoms: _262  and  _263
REMARK   92  A    between atoms: _262  and  _265
REMARK   93  A    between atoms: _265  and  _266
REMARK   94  A    between atoms: _271  and  _273
REMARK   95  A    between atoms: _273  and  _274
REMARK   96  A    between atoms: _273  and  _276
REMARK   97  A    between atoms: _276  and  _277
REMARK   98  A    between atoms: _281  and  ZN_399
REMARK   99  A    between atoms: _282  and  _284
REMARK  100  A    between atoms: _284  and  _285
REMARK  101  A    between atoms: _284  and  _287
REMARK  102  A    between atoms: _287  and  _288
REMARK  103  A    between atoms: _291  and  _293
REMARK  104  A    between atoms: _293  and  _294
REMARK  105  A    between atoms: _296  and  _298
REMARK  106  A    between atoms: _298  and  _299
REMARK  107  A    between atoms: _298  and  _301
REMARK  108  A    between atoms: _301  and  _302
REMARK  109  A    between atoms: _305  and  _307
REMARK  110  A    between atoms: _307  and  _308
REMARK  111  A    between atoms: _307  and  _310
REMARK  112  A    between atoms: _310  and  _311
REMARK  113  A    between atoms: _314  and  _316
REMARK  114  A    between atoms: _316  and  _317
REMARK  115  A    between atoms: _320  and  _322
REMARK  116  A    between atoms: _322  and  _323
REMARK  117  A    between atoms: _326  and  _328
REMARK  118  A    between atoms: _328  and  _329
REMARK  119  A    between atoms: _328  and  _331
REMARK  120  A    between atoms: _331  and  _332
REMARK  121  A    between atoms: _337  and  _338
REMARK  122  A    between atoms: _340  and  _342
REMARK  123  A    between atoms: _342  and  _343
REMARK  124  A    between atoms: _342  and  _345
REMARK  125  A    between atoms: _345  and  _346
REMARK  126  A    between atoms: _349  and  _351
REMARK  127  A    between atoms: _351  and  _352
REMARK  128  A    between atoms: _351  and  _354
REMARK  129  A    between atoms: _354  and  _355
REMARK  130  A    between atoms: _358  and  _360
REMARK  131  A    between atoms: _360  and  _361
REMARK  132  A    between atoms: _360  and  _363
REMARK  133  A    between atoms: _363  and  _364
REMARK  134  A    between atoms: _364  and  _365
REMARK  135  A    between atoms: _368  and  _370
REMARK  136  A    between atoms: _370  and  _371
REMARK  137  A    between atoms: _370  and  _373
REMARK  138  A    between atoms: _373  and  _374
REMARK  139  A    between atoms: _374  and  _375
REMARK  140  A    between atoms: _375  and  _376
REMARK  141  A    between atoms: _385  and  _387
REMARK  142  A    between atoms: _387  and  _388
REMARK  143  A    between atoms: _390  and  _392
REMARK  144  A    between atoms: _392  and  _393
REMARK  145  A    between atoms: _392  and  _395
REMARK  146  A    between atoms: _395  and  _396
REMARK                            x       y       z     vdW  Elec       q    Type
REMARK                         _______ _______ _______ _____ _____    ______ ____
ROOT
ATOM      1  O   HOH     1      25.349  65.588  17.377  0.00  0.00    +0.000 OA
ENDROOT
TORSDOF 0
REMARK  Name = ../refined-set-2016/3d4z/3d4z_pocket.pdb
REMARK  146 active torsions:
REMARK  status: ('A' for Active; 'I' for Inactive)
REMARK    1  A    between atoms: _1  and  _3
REMARK    2  A    between atoms: _14  and  _17
REMARK    3  A    between atoms: _17  and  _18
REMARK    4  A    between atoms: _25  and  _26
REMARK    5  A    between atoms: _33  and  _34
REMARK    6  A    between atoms: _39  and  _41
REMARK    7  A    between atoms: _41  and  _42
REMARK    8  A    between atoms: _44  and  _46
REMARK    9  A    between atoms: _46  and  _47
REMARK   10  A    between atoms: _46  and  _49
REMARK   11  A    between atoms: _49  and  _50
REMARK   12  A    between atoms: _60  and  _62
REMARK   13  A    between atoms: _62  and  _63
REMARK   14  A    between atoms: _62  and  _65
REMARK   15  A    between atoms: _65  and  _66
REMARK   16  A    between atoms: _69  and  _71
REMARK   17  A    between atoms: _71  and  _72
REMARK   18  A    between atoms: _71  and  _74
REMARK   19  A    between atoms: _74  and  _75
REMARK   20  A    between atoms: _80  and  _81
REMARK   21  A    between atoms: _83  and  _85
REMARK   22  A    between atoms: _85  and  _86
REMARK   23  A    between atoms: _85  and  _88
REMARK   24  A    between atoms: _88  and  _89
REMARK   25  A    between atoms: _89  and  _90
REMARK   26  A    between atoms: _92  and  _94
REMARK   27  A    between atoms: _94  and  _95
REMARK   28  A    between atoms: _94  and  _97
REMARK   29  A    between atoms: _97  and  _98
REMARK   30  A    between atoms: _101  and  _103
REMARK   31  A    between atoms: _103  and  _104
REMARK   32  A    between atoms: _103  and  _106
REMARK   33  A    between atoms: _106  and  _107
REMARK   34  A    between atoms: _107  and  _109
REMARK   35  A    between atoms: _109  and  ZN_399
REMARK   36  A    between atoms: _111  and  _112
REMARK   37  A    between atoms: _117  and  _119
REMARK   38  A    between atoms: _119  and  _120
REMARK   39  A    between atoms: _119  and  _122
REMARK   40  A    between atoms: _122  and  _123
REMARK   41  A    between atoms: _129  and  _131
REMARK   42  A    between atoms: _131  and  _132
REMARK   43  A    between atoms: _131  and  _134
REMARK   44  A    between atoms: _134  and  _135
REMARK   45  A    between atoms: _135  and  _136
REMARK   46  A    between atoms: _136  and  _137
REMARK   47  A    between atoms: _146  and  _148
REMARK   48  A    between atoms: _148  and  _149
REMARK   49  A    between atoms: _148  and  _151
REMARK   50  A    between atoms: _151  and  _152
REMARK   51  A    between atoms: _157  and  _158
REMARK   52  A    between atoms: _160  and  _162
REMARK   53  A    between atoms: _162  and  _163
REMARK   54  A    between atoms: _162  and  _165
REMARK   55  A    between atoms: _165  and  _166
REMARK   56  A    between atoms: _168  and  _170
REMARK   57  A    between atoms: _170  and  _171
REMARK   58  A    between atoms: _170  and  _173
REMARK   59  A    between atoms: _173  and  _174
REMARK   60  A    between atoms: _179  and  _180
REMARK   61  A    between atoms: _182  and  _184
REMARK   62  A    between atoms: _184  and  _185
REMARK   63  A    between atoms: _184  and  _187
REMARK   64  A    between atoms: _187  and  _188
REMARK   65  A    between atoms: _191  and  _193
REMARK   66  A    between atoms: _193  and  _194
REMARK   67  A    between atoms: _193  and  _196
REMARK   68  A    between atoms: _196  and  _197
REMARK   69  A    between atoms: _200  and  _202
REMARK   70  A    between atoms: _202  and  _203
REMARK   71  A    between atoms: _202  and  _205
REMARK   72  A    between atoms: _205  and  _206
REMARK   73  A    between atoms: _209  and  _211
REMARK   74  A    between atoms: _211  and  _212
REMARK   75  A    between atoms: _211  and  _214
REMARK   76  A    between atoms: _214  and  _215
REMARK   77  A    between atoms: _221  and  _223
REMARK   78  A    between atoms: _223  and  _224
REMARK   79  A    between atoms: _223  and  _226
REMARK   80  A    between atoms: _226  and  _227
REMARK   81  A    between atoms: _232  and  _233
REMARK   82  A    between atoms: _235  and  _237
REMARK   83  A    between atoms: _237  and  _238
REMARK   84  A    between atoms: _237  and  _240
REMARK   85  A    between atoms: _240  and  _241
REMARK   86  A    between atoms: _244  and  _246
REMARK   87  A    between atoms: _246  and  _247
REMARK   88  A    between atoms: _246  and  _249
REMARK   89  A    between atoms: _249  and  _250
REMARK   90  A    between atoms: _260  and  _262
REMARK   91  A    between atoms: _262  and  _263
REMARK   92  A    between atoms: _262  and  _265
REMARK   93  A    between atoms: _265  and  _266
REMARK   94  A    between atoms: _271  and  _273
REMARK   95  A    between atoms: _273  and  _274
REMARK   96  A    between atoms: _273  and  _276
REMARK   97  A    between atoms: _276  and  _277
REMARK   98  A    between atoms: _281  and  ZN_399
REMARK   99  A    between atoms: _282  and  _284
REMARK  100  A    between atoms: _284  and  _285
REMARK  101  A    between atoms: _284  and  _287
REMARK  102  A    between atoms: _287  and  _288
REMARK  103  A    between atoms: _291  and  _293
REMARK  104  A    between atoms: _293  and  _294
REMARK  105  A    between atoms: _296  and  _298
REMARK  106  A    between atoms: _298  and  _299
REMARK  107  A    between atoms: _298  and  _301
REMARK  108  A    between atoms: _301  and  _302
REMARK  109  A    between atoms: _305  and  _307
REMARK  110  A    between atoms: _307  and  _308
REMARK  111  A    between atoms: _307  and  _310
REMARK  112  A    between atoms: _310  and  _311
REMARK  113  A    between atoms: _314  and  _316
REMARK  114  A    between atoms: _316  and  _317
REMARK  115  A    between atoms: _320  and  _322
REMARK  116  A    between atoms: _322  and  _323
REMARK  117  A    between atoms: _326  and  _328
REMARK  118  A    between atoms: _328  and  _329
REMARK  119  A    between atoms: _328  and  _331
REMARK  120  A    between atoms: _331  and  _332
REMARK  121  A    between atoms: _337  and  _338
REMARK  122  A    between atoms: _340  and  _342
REMARK  123  A    between atoms: _342  and  _343
REMARK  124  A    between atoms: _342  and  _345
REMARK  125  A    between atoms: _345  and  _346
REMARK  126  A    between atoms: _349  and  _351
REMARK  127  A    between atoms: _351  and  _352
REMARK  128  A    between atoms: _351  and  _354
REMARK  129  A    between atoms: _354  and  _355
REMARK  130  A    between atoms: _358  and  _360
REMARK  131  A    between atoms: _360  and  _361
REMARK  132  A    between atoms: _360  and  _363
REMARK  133  A    between atoms: _363  and  _364
REMARK  134  A    between atoms: _364  and  _365
REMARK  135  A    between atoms: _368  and  _370
REMARK  136  A    between atoms: _370  and  _371
REMARK  137  A    between atoms: _370  and  _373
REMARK  138  A    between atoms: _373  and  _374
REMARK  139  A    between atoms: _374  and  _375
REMARK  140  A    between atoms: _375  and  _376
REMARK  141  A    between atoms: _385  and  _387
REMARK  142  A    between atoms: _387  and  _388
REMARK  143  A    between atoms: _390  and  _392
REMARK  144  A    between atoms: _392  and  _393
REMARK  145  A    between atoms: _392  and  _395
REMARK  146  A    between atoms: _395  and  _396
REMARK                            x       y       z     vdW  Elec       q    Type
REMARK                         _______ _______ _______ _____ _____    ______ ____
ROOT
ATOM      1  O   HOH     1      29.750  66.480  18.000  0.00  0.00    +0.000 OA
ENDROOT
TORSDOF 0
REMARK  Name = ../refined-set-2016/3d4z/3d4z_pocket.pdb
REMARK  146 active torsions:
REMARK  status: ('A' for Active; 'I' for Inactive)
REMARK    1  A    between atoms: _1  and  _3
REMARK    2  A    between atoms: _14  and  _17
REMARK    3  A    between atoms: _17  and  _18
REMARK    4  A    between atoms: _25  and  _26
REMARK    5  A    between atoms: _33  and  _34
REMARK    6  A    between atoms: _39  and  _41
REMARK    7  A    between atoms: _41  and  _42
REMARK    8  A    between atoms: _44  and  _46
REMARK    9  A    between atoms: _46  and  _47
REMARK   10  A    between atoms: _46  and  _49
REMARK   11  A    between atoms: _49  and  _50
REMARK   12  A    between atoms: _60  and  _62
REMARK   13  A    between atoms: _62  and  _63
REMARK   14  A    between atoms: _62  and  _65
REMARK   15  A    between atoms: _65  and  _66
REMARK   16  A    between atoms: _69  and  _71
REMARK   17  A    between atoms: _71  and  _72
REMARK   18  A    between atoms: _71  and  _74
REMARK   19  A    between atoms: _74  and  _75
REMARK   20  A    between atoms: _80  and  _81
REMARK   21  A    between atoms: _83  and  _85
REMARK   22  A    between atoms: _85  and  _86
REMARK   23  A    between atoms: _85  and  _88
REMARK   24  A    between atoms: _88  and  _89
REMARK   25  A    between atoms: _89  and  _90
REMARK   26  A    between atoms: _92  and  _94
REMARK   27  A    between atoms: _94  and  _95
REMARK   28  A    between atoms: _94  and  _97
REMARK   29  A    between atoms: _97  and  _98
REMARK   30  A    between atoms: _101  and  _103
REMARK   31  A    between atoms: _103  and  _104
REMARK   32  A    between atoms: _103  and  _106
REMARK   33  A    between atoms: _106  and  _107
REMARK   34  A    between atoms: _107  and  _109
REMARK   35  A    between atoms: _109  and  ZN_399
REMARK   36  A    between atoms: _111  and  _112
REMARK   37  A    between atoms: _117  and  _119
REMARK   38  A    between atoms: _119  and  _120
REMARK   39  A    between atoms: _119  and  _122
REMARK   40  A    between atoms: _122  and  _123
REMARK   41  A    between atoms: _129  and  _131
REMARK   42  A    between atoms: _131  and  _132
REMARK   43  A    between atoms: _131  and  _134
REMARK   44  A    between atoms: _134  and  _135
REMARK   45  A    between atoms: _135  and  _136
REMARK   46  A    between atoms: _136  and  _137
REMARK   47  A    between atoms: _146  and  _148
REMARK   48  A    between atoms: _148  and  _149
REMARK   49  A    between atoms: _148  and  _151
REMARK   50  A    between atoms: _151  and  _152
REMARK   51  A    between atoms: _157  and  _158
REMARK   52  A    between atoms: _160  and  _162
REMARK   53  A    between atoms: _162  and  _163
REMARK   54  A    between atoms: _162  and  _165
REMARK   55  A    between atoms: _165  and  _166
REMARK   56  A    between atoms: _168  and  _170
REMARK   57  A    between atoms: _170  and  _171
REMARK   58  A    between atoms: _170  and  _173
REMARK   59  A    between atoms: _173  and  _174
REMARK   60  A    between atoms: _179  and  _180
REMARK   61  A    between atoms: _182  and  _184
REMARK   62  A    between atoms: _184  and  _185
REMARK   63  A    between atoms: _184  and  _187
REMARK   64  A    between atoms: _187  and  _188
REMARK   65  A    between atoms: _191  and  _193
REMARK   66  A    between atoms: _193  and  _194
REMARK   67  A    between atoms: _193  and  _196
REMARK   68  A    between atoms: _196  and  _197
REMARK   69  A    between atoms: _200  and  _202
REMARK   70  A    between atoms: _202  and  _203
REMARK   71  A    between atoms: _202  and  _205
REMARK   72  A    between atoms: _205  and  _206
REMARK   73  A    between atoms: _209  and  _211
REMARK   74  A    between atoms: _211  and  _212
REMARK   75  A    between atoms: _211  and  _214
REMARK   76  A    between atoms: _214  and  _215
REMARK   77  A    between atoms: _221  and  _223
REMARK   78  A    between atoms: _223  and  _224
REMARK   79  A    between atoms: _223  and  _226
REMARK   80  A    between atoms: _226  and  _227
REMARK   81  A    between atoms: _232  and  _233
REMARK   82  A    between atoms: _235  and  _237
REMARK   83  A    between atoms: _237  and  _238
REMARK   84  A    between atoms: _237  and  _240
REMARK   85  A    between atoms: _240  and  _241
REMARK   86  A    between atoms: _244  and  _246
REMARK   87  A    between atoms: _246  and  _247
REMARK   88  A    between atoms: _246  and  _249
REMARK   89  A    between atoms: _249  and  _250
REMARK   90  A    between atoms: _260  and  _262
REMARK   91  A    between atoms: _262  and  _263
REMARK   92  A    between atoms: _262  and  _265
REMARK   93  A    between atoms: _265  and  _266
REMARK   94  A    between atoms: _271  and  _273
REMARK   95  A    between atoms: _273  and  _274
REMARK   96  A    between atoms: _273  and  _276
REMARK   97  A    between atoms: _276  and  _277
REMARK   98  A    between atoms: _281  and  ZN_399
REMARK   99  A    between atoms: _282  and  _284
REMARK  100  A    between atoms: _284  and  _285
REMARK  101  A    between atoms: _284  and  _287
REMARK  102  A    between atoms: _287  and  _288
REMARK  103  A    between atoms: _291  and  _293
REMARK  104  A    between atoms: _293  and  _294
REMARK  105  A    between atoms: _296  and  _298
REMARK  106  A    between atoms: _298  and  _299
REMARK  107  A    between atoms: _298  and  _301
REMARK  108  A    between atoms: _301  and  _302
REMARK  109  A    between atoms: _305  and  _307
REMARK  110  A    between atoms: _307  and  _308
REMARK  111  A    between atoms: _307  and  _310
REMARK  112  A    between atoms: _310  and  _311
REMARK  113  A    between atoms: _314  and  _316
REMARK  114  A    between atoms: _316  and  _317
REMARK  115  A    between atoms: _320  and  _322
REMARK  116  A    between atoms: _322  and  _323
REMARK  117  A    between atoms: _326  and  _328
REMARK  118  A    between atoms: _328  and  _329
REMARK  119  A    between atoms: _328  and  _331
REMARK  120  A    between atoms: _331  and  _332
REMARK  121  A    between atoms: _337  and  _338
REMARK  122  A    between atoms: _340  and  _342
REMARK  123  A    between atoms: _342  and  _343
REMARK  124  A    between atoms: _342  and  _345
REMARK  125  A    between atoms: _345  and  _346
REMARK  126  A    between atoms: _349  and  _351
REMARK  127  A    between atoms: _351  and  _352
REMARK  128  A    between atoms: _351  and  _354
REMARK  129  A    between atoms: _354  and  _355
REMARK  130  A    between atoms: _358  and  _360
REMARK  131  A    between atoms: _360  and  _361
REMARK  132  A    between atoms: _360  and  _363
REMARK  133  A    between atoms: _363  and  _364
REMARK  134  A    between atoms: _364  and  _365
REMARK  135  A    between atoms: _368  and  _370
REMARK  136  A    between atoms: _370  and  _371
REMARK  137  A    between atoms: _370  and  _373
REMARK  138  A    between atoms: _373  and  _374
REMARK  139  A    between atoms: _374  and  _375
REMARK  140  A    between atoms: _375  and  _376
REMARK  141  A    between atoms: _385  and  _387
REMARK  142  A    between atoms: _387  and  _388
REMARK  143  A    between atoms: _390  and  _392
REMARK  144  A    between atoms: _392  and  _393
REMARK  145  A    between atoms: _392  and  _395
REMARK  146  A    between atoms: _395  and  _396
REMARK                            x       y       z     vdW  Elec       q    Type
REMARK                         _______ _______ _______ _____ _____    ______ ____
ROOT
ATOM      1  O   HOH     1      20.681  64.975   7.811  0.00  0.00    +0.000 OA
ENDROOT
TORSDOF 0
REMARK  Name = ../refined-set-2016/3d4z/3d4z_pocket.pdb
REMARK  146 active torsions:
REMARK  status: ('A' for Active; 'I' for Inactive)
REMARK    1  A    between atoms: _1  and  _3
REMARK    2  A    between atoms: _14  and  _17
REMARK    3  A    between atoms: _17  and  _18
REMARK    4  A    between atoms: _25  and  _26
REMARK    5  A    between atoms: _33  and  _34
REMARK    6  A    between atoms: _39  and  _41
REMARK    7  A    between atoms: _41  and  _42
REMARK    8  A    between atoms: _44  and  _46
REMARK    9  A    between atoms: _46  and  _47
REMARK   10  A    between atoms: _46  and  _49
REMARK   11  A    between atoms: _49  and  _50
REMARK   12  A    between atoms: _60  and  _62
REMARK   13  A    between atoms: _62  and  _63
REMARK   14  A    between atoms: _62  and  _65
REMARK   15  A    between atoms: _65  and  _66
REMARK   16  A    between atoms: _69  and  _71
REMARK   17  A    between atoms: _71  and  _72
REMARK   18  A    between atoms: _71  and  _74
REMARK   19  A    between atoms: _74  and  _75
REMARK   20  A    between atoms: _80  and  _81
REMARK   21  A    between atoms: _83  and  _85
REMARK   22  A    between atoms: _85  and  _86
REMARK   23  A    between atoms: _85  and  _88
REMARK   24  A    between atoms: _88  and  _89
REMARK   25  A    between atoms: _89  and  _90
REMARK   26  A    between atoms: _92  and  _94
REMARK   27  A    between atoms: _94  and  _95
REMARK   28  A    between atoms: _94  and  _97
REMARK   29  A    between atoms: _97  and  _98
REMARK   30  A    between atoms: _101  and  _103
REMARK   31  A    between atoms: _103  and  _104
REMARK   32  A    between atoms: _103  and  _106
REMARK   33  A    between atoms: _106  and  _107
REMARK   34  A    between atoms: _107  and  _109
REMARK   35  A    between atoms: _109  and  ZN_399
REMARK   36  A    between atoms: _111  and  _112
REMARK   37  A    between atoms: _117  and  _119
REMARK   38  A    between atoms: _119  and  _120
REMARK   39  A    between atoms: _119  and  _122
REMARK   40  A    between atoms: _122  and  _123
REMARK   41  A    between atoms: _129  and  _131
REMARK   42  A    between atoms: _131  and  _132
REMARK   43  A    between atoms: _131  and  _134
REMARK   44  A    between atoms: _134  and  _135
REMARK   45  A    between atoms: _135  and  _136
REMARK   46  A    between atoms: _136  and  _137
REMARK   47  A    between atoms: _146  and  _148
REMARK   48  A    between atoms: _148  and  _149
REMARK   49  A    between atoms: _148  and  _151
REMARK   50  A    between atoms: _151  and  _152
REMARK   51  A    between atoms: _157  and  _158
REMARK   52  A    between atoms: _160  and  _162
REMARK   53  A    between atoms: _162  and  _163
REMARK   54  A    between atoms: _162  and  _165
REMARK   55  A    between atoms: _165  and  _166
REMARK   56  A    between atoms: _168  and  _170
REMARK   57  A    between atoms: _170  and  _171
REMARK   58  A    between atoms: _170  and  _173
REMARK   59  A    between atoms: _173  and  _174
REMARK   60  A    between atoms: _179  and  _180
REMARK   61  A    between atoms: _182  and  _184
REMARK   62  A    between atoms: _184  and  _185
REMARK   63  A    between atoms: _184  and  _187
REMARK   64  A    between atoms: _187  and  _188
REMARK   65  A    between atoms: _191  and  _193
REMARK   66  A    between atoms: _193  and  _194
REMARK   67  A    between atoms: _193  and  _196
REMARK   68  A    between atoms: _196  and  _197
REMARK   69  A    between atoms: _200  and  _202
REMARK   70  A    between atoms: _202  and  _203
REMARK   71  A    between atoms: _202  and  _205
REMARK   72  A    between atoms: _205  and  _206
REMARK   73  A    between atoms: _209  and  _211
REMARK   74  A    between atoms: _211  and  _212
REMARK   75  A    between atoms: _211  and  _214
REMARK   76  A    between atoms: _214  and  _215
REMARK   77  A    between atoms: _221  and  _223
REMARK   78  A    between atoms: _223  and  _224
REMARK   79  A    between atoms: _223  and  _226
REMARK   80  A    between atoms: _226  and  _227
REMARK   81  A    between atoms: _232  and  _233
REMARK   82  A    between atoms: _235  and  _237
REMARK   83  A    between atoms: _237  and  _238
REMARK   84  A    between atoms: _237  and  _240
REMARK   85  A    between atoms: _240  and  _241
REMARK   86  A    between atoms: _244  and  _246
REMARK   87  A    between atoms: _246  and  _247
REMARK   88  A    between atoms: _246  and  _249
REMARK   89  A    between atoms: _249  and  _250
REMARK   90  A    between atoms: _260  and  _262
REMARK   91  A    between atoms: _262  and  _263
REMARK   92  A    between atoms: _262  and  _265
REMARK   93  A    between atoms: _265  and  _266
REMARK   94  A    between atoms: _271  and  _273
REMARK   95  A    between atoms: _273  and  _274
REMARK   96  A    between atoms: _273  and  _276
REMARK   97  A    between atoms: _276  and  _277
REMARK   98  A    between atoms: _281  and  ZN_399
REMARK   99  A    between atoms: _282  and  _284
REMARK  100  A    between atoms: _284  and  _285
REMARK  101  A    between atoms: _284  and  _287
REMARK  102  A    between atoms: _287  and  _288
REMARK  103  A    between atoms: _291  and  _293
REMARK  104  A    between atoms: _293  and  _294
REMARK  105  A    between atoms: _296  and  _298
REMARK  106  A    between atoms: _298  and  _299
REMARK  107  A    between atoms: _298  and  _301
REMARK  108  A    between atoms: _301  and  _302
REMARK  109  A    between atoms: _305  and  _307
REMARK  110  A    between atoms: _307  and  _308
REMARK  111  A    between atoms: _307  and  _310
REMARK  112  A    between atoms: _310  and  _311
REMARK  113  A    between atoms: _314  and  _316
REMARK  114  A    between atoms: _316  and  _317
REMARK  115  A    between atoms: _320  and  _322
REMARK  116  A    between atoms: _322  and  _323
REMARK  117  A    between atoms: _326  and  _328
REMARK  118  A    between atoms: _328  and  _329
REMARK  119  A    between atoms: _328  and  _331
REMARK  120  A    between atoms: _331  and  _332
REMARK  121  A    between atoms: _337  and  _338
REMARK  122  A    between atoms: _340  and  _342
REMARK  123  A    between atoms: _342  and  _343
REMARK  124  A    between atoms: _342  and  _345
REMARK  125  A    between atoms: _345  and  _346
REMARK  126  A    between atoms: _349  and  _351
REMARK  127  A    between atoms: _351  and  _352
REMARK  128  A    between atoms: _351  and  _354
REMARK  129  A    between atoms: _354  and  _355
REMARK  130  A    between atoms: _358  and  _360
REMARK  131  A    between atoms: _360  and  _361
REMARK  132  A    between atoms: _360  and  _363
REMARK  133  A    between atoms: _363  and  _364
REMARK  134  A    between atoms: _364  and  _365
REMARK  135  A    between atoms: _368  and  _370
REMARK  136  A    between atoms: _370  and  _371
REMARK  137  A    between atoms: _370  and  _373
REMARK  138  A    between atoms: _373  and  _374
REMARK  139  A    between atoms: _374  and  _375
REMARK  140  A    between atoms: _375  and  _376
REMARK  141  A    between atoms: _385  and  _387
REMARK  142  A    between atoms: _387  and  _388
REMARK  143  A    between atoms: _390  and  _392
REMARK  144  A    between atoms: _392  and  _393
REMARK  145  A    between atoms: _392  and  _395
REMARK  146  A    between atoms: _395  and  _396
REMARK                            x       y       z     vdW  Elec       q    Type
REMARK                         _______ _______ _______ _____ _____    ______ ____
ROOT
ATOM      1  O   HOH     1      20.391  67.726   8.442  0.00  0.00    +0.000 OA
ENDROOT
TORSDOF 0
REMARK  Name = ../refined-set-2016/3d4z/3d4z_pocket.pdb
REMARK  146 active torsions:
REMARK  status: ('A' for Active; 'I' for Inactive)
REMARK    1  A    between atoms: _1  and  _3
REMARK    2  A    between atoms: _14  and  _17
REMARK    3  A    between atoms: _17  and  _18
REMARK    4  A    between atoms: _25  and  _26
REMARK    5  A    between atoms: _33  and  _34
REMARK    6  A    between atoms: _39  and  _41
REMARK    7  A    between atoms: _41  and  _42
REMARK    8  A    between atoms: _44  and  _46
REMARK    9  A    between atoms: _46  and  _47
REMARK   10  A    between atoms: _46  and  _49
REMARK   11  A    between atoms: _49  and  _50
REMARK   12  A    between atoms: _60  and  _62
REMARK   13  A    between atoms: _62  and  _63
REMARK   14  A    between atoms: _62  and  _65
REMARK   15  A    between atoms: _65  and  _66
REMARK   16  A    between atoms: _69  and  _71
REMARK   17  A    between atoms: _71  and  _72
REMARK   18  A    between atoms: _71  and  _74
REMARK   19  A    between atoms: _74  and  _75
REMARK   20  A    between atoms: _80  and  _81
REMARK   21  A    between atoms: _83  and  _85
REMARK   22  A    between atoms: _85  and  _86
REMARK   23  A    between atoms: _85  and  _88
REMARK   24  A    between atoms: _88  and  _89
REMARK   25  A    between atoms: _89  and  _90
REMARK   26  A    between atoms: _92  and  _94
REMARK   27  A    between atoms: _94  and  _95
REMARK   28  A    between atoms: _94  and  _97
REMARK   29  A    between atoms: _97  and  _98
REMARK   30  A    between atoms: _101  and  _103
REMARK   31  A    between atoms: _103  and  _104
REMARK   32  A    between atoms: _103  and  _106
REMARK   33  A    between atoms: _106  and  _107
REMARK   34  A    between atoms: _107  and  _109
REMARK   35  A    between atoms: _109  and  ZN_399
REMARK   36  A    between atoms: _111  and  _112
REMARK   37  A    between atoms: _117  and  _119
REMARK   38  A    between atoms: _119  and  _120
REMARK   39  A    between atoms: _119  and  _122
REMARK   40  A    between atoms: _122  and  _123
REMARK   41  A    between atoms: _129  and  _131
REMARK   42  A    between atoms: _131  and  _132
REMARK   43  A    between atoms: _131  and  _134
REMARK   44  A    between atoms: _134  and  _135
REMARK   45  A    between atoms: _135  and  _136
REMARK   46  A    between atoms: _136  and  _137
REMARK   47  A    between atoms: _146  and  _148
REMARK   48  A    between atoms: _148  and  _149
REMARK   49  A    between atoms: _148  and  _151
REMARK   50  A    between atoms: _151  and  _152
REMARK   51  A    between atoms: _157  and  _158
REMARK   52  A    between atoms: _160  and  _162
REMARK   53  A    between atoms: _162  and  _163
REMARK   54  A    between atoms: _162  and  _165
REMARK   55  A    between atoms: _165  and  _166
REMARK   56  A    between atoms: _168  and  _170
REMARK   57  A    between atoms: _170  and  _171
REMARK   58  A    between atoms: _170  and  _173
REMARK   59  A    between atoms: _173  and  _174
REMARK   60  A    between atoms: _179  and  _180
REMARK   61  A    between atoms: _182  and  _184
REMARK   62  A    between atoms: _184  and  _185
REMARK   63  A    between atoms: _184  and  _187
REMARK   64  A    between atoms: _187  and  _188
REMARK   65  A    between atoms: _191  and  _193
REMARK   66  A    between atoms: _193  and  _194
REMARK   67  A    between atoms: _193  and  _196
REMARK   68  A    between atoms: _196  and  _197
REMARK   69  A    between atoms: _200  and  _202
REMARK   70  A    between atoms: _202  and  _203
REMARK   71  A    between atoms: _202  and  _205
REMARK   72  A    between atoms: _205  and  _206
REMARK   73  A    between atoms: _209  and  _211
REMARK   74  A    between atoms: _211  and  _212
REMARK   75  A    between atoms: _211  and  _214
REMARK   76  A    between atoms: _214  and  _215
REMARK   77  A    between atoms: _221  and  _223
REMARK   78  A    between atoms: _223  and  _224
REMARK   79  A    between atoms: _223  and  _226
REMARK   80  A    between atoms: _226  and  _227
REMARK   81  A    between atoms: _232  and  _233
REMARK   82  A    between atoms: _235  and  _237
REMARK   83  A    between atoms: _237  and  _238
REMARK   84  A    between atoms: _237  and  _240
REMARK   85  A    between atoms: _240  and  _241
REMARK   86  A    between atoms: _244  and  _246
REMARK   87  A    between atoms: _246  and  _247
REMARK   88  A    between atoms: _246  and  _249
REMARK   89  A    between atoms: _249  and  _250
REMARK   90  A    between atoms: _260  and  _262
REMARK   91  A    between atoms: _262  and  _263
REMARK   92  A    between atoms: _262  and  _265
REMARK   93  A    between atoms: _265  and  _266
REMARK   94  A    between atoms: _271  and  _273
REMARK   95  A    between atoms: _273  and  _274
REMARK   96  A    between atoms: _273  and  _276
REMARK   97  A    between atoms: _276  and  _277
REMARK   98  A    between atoms: _281  and  ZN_399
REMARK   99  A    between atoms: _282  and  _284
REMARK  100  A    between atoms: _284  and  _285
REMARK  101  A    between atoms: _284  and  _287
REMARK  102  A    between atoms: _287  and  _288
REMARK  103  A    between atoms: _291  and  _293
REMARK  104  A    between atoms: _293  and  _294
REMARK  105  A    between atoms: _296  and  _298
REMARK  106  A    between atoms: _298  and  _299
REMARK  107  A    between atoms: _298  and  _301
REMARK  108  A    between atoms: _301  and  _302
REMARK  109  A    between atoms: _305  and  _307
REMARK  110  A    between atoms: _307  and  _308
REMARK  111  A    between atoms: _307  and  _310
REMARK  112  A    between atoms: _310  and  _311
REMARK  113  A    between atoms: _314  and  _316
REMARK  114  A    between atoms: _316  and  _317
REMARK  115  A    between atoms: _320  and  _322
REMARK  116  A    between atoms: _322  and  _323
REMARK  117  A    between atoms: _326  and  _328
REMARK  118  A    between atoms: _328  and  _329
REMARK  119  A    between atoms: _328  and  _331
REMARK  120  A    between atoms: _331  and  _332
REMARK  121  A    between atoms: _337  and  _338
REMARK  122  A    between atoms: _340  and  _342
REMARK  123  A    between atoms: _342  and  _343
REMARK  124  A    between atoms: _342  and  _345
REMARK  125  A    between atoms: _345  and  _346
REMARK  126  A    between atoms: _349  and  _351
REMARK  127  A    between atoms: _351  and  _352
REMARK  128  A    between atoms: _351  and  _354
REMARK  129  A    between atoms: _354  and  _355
REMARK  130  A    between atoms: _358  and  _360
REMARK  131  A    between atoms: _360  and  _361
REMARK  132  A    between atoms: _360  and  _363
REMARK  133  A    between atoms: _363  and  _364
REMARK  134  A    between atoms: _364  and  _365
REMARK  135  A    between atoms: _368  and  _370
REMARK  136  A    between atoms: _370  and  _371
REMARK  137  A    between atoms: _370  and  _373
REMARK  138  A    between atoms: _373  and  _374
REMARK  139  A    between atoms: _374  and  _375
REMARK  140  A    between atoms: _375  and  _376
REMARK  141  A    between atoms: _385  and  _387
REMARK  142  A    between atoms: _387  and  _388
REMARK  143  A    between atoms: _390  and  _392
REMARK  144  A    between atoms: _392  and  _393
REMARK  145  A    between atoms: _392  and  _395
REMARK  146  A    between atoms: _395  and  _396
REMARK                            x       y       z     vdW  Elec       q    Type
REMARK                         _______ _______ _______ _____ _____    ______ ____
ROOT
ATOM      1  O   HOH     1      32.999  62.492   0.210  0.00  0.00    +0.000 OA
ENDROOT
TORSDOF 0
REMARK  Name = ../refined-set-2016/3d4z/3d4z_pocket.pdb
REMARK  146 active torsions:
REMARK  status: ('A' for Active; 'I' for Inactive)
REMARK    1  A    between atoms: _1  and  _3
REMARK    2  A    between atoms: _14  and  _17
REMARK    3  A    between atoms: _17  and  _18
REMARK    4  A    between atoms: _25  and  _26
REMARK    5  A    between atoms: _33  and  _34
REMARK    6  A    between atoms: _39  and  _41
REMARK    7  A    between atoms: _41  and  _42
REMARK    8  A    between atoms: _44  and  _46
REMARK    9  A    between atoms: _46  and  _47
REMARK   10  A    between atoms: _46  and  _49
REMARK   11  A    between atoms: _49  and  _50
REMARK   12  A    between atoms: _60  and  _62
REMARK   13  A    between atoms: _62  and  _63
REMARK   14  A    between atoms: _62  and  _65
REMARK   15  A    between atoms: _65  and  _66
REMARK   16  A    between atoms: _69  and  _71
REMARK   17  A    between atoms: _71  and  _72
REMARK   18  A    between atoms: _71  and  _74
REMARK   19  A    between atoms: _74  and  _75
REMARK   20  A    between atoms: _80  and  _81
REMARK   21  A    between atoms: _83  and  _85
REMARK   22  A    between atoms: _85  and  _86
REMARK   23  A    between atoms: _85  and  _88
REMARK   24  A    between atoms: _88  and  _89
REMARK   25  A    between atoms: _89  and  _90
REMARK   26  A    between atoms: _92  and  _94
REMARK   27  A    between atoms: _94  and  _95
REMARK   28  A    between atoms: _94  and  _97
REMARK   29  A    between atoms: _97  and  _98
REMARK   30  A    between atoms: _101  and  _103
REMARK   31  A    between atoms: _103  and  _104
REMARK   32  A    between atoms: _103  and  _106
REMARK   33  A    between atoms: _106  and  _107
REMARK   34  A    between atoms: _107  and  _109
REMARK   35  A    between atoms: _109  and  ZN_399
REMARK   36  A    between atoms: _111  and  _112
REMARK   37  A    between atoms: _117  and  _119
REMARK   38  A    between atoms: _119  and  _120
REMARK   39  A    between atoms: _119  and  _122
REMARK   40  A    between atoms: _122  and  _123
REMARK   41  A    between atoms: _129  and  _131
REMARK   42  A    between atoms: _131  and  _132
REMARK   43  A    between atoms: _131  and  _134
REMARK   44  A    between atoms: _134  and  _135
REMARK   45  A    between atoms: _135  and  _136
REMARK   46  A    between atoms: _136  and  _137
REMARK   47  A    between atoms: _146  and  _148
REMARK   48  A    between atoms: _148  and  _149
REMARK   49  A    between atoms: _148  and  _151
REMARK   50  A    between atoms: _151  and  _152
REMARK   51  A    between atoms: _157  and  _158
REMARK   52  A    between atoms: _160  and  _162
REMARK   53  A    between atoms: _162  and  _163
REMARK   54  A    between atoms: _162  and  _165
REMARK   55  A    between atoms: _165  and  _166
REMARK   56  A    between atoms: _168  and  _170
REMARK   57  A    between atoms: _170  and  _171
REMARK   58  A    between atoms: _170  and  _173
REMARK   59  A    between atoms: _173  and  _174
REMARK   60  A    between atoms: _179  and  _180
REMARK   61  A    between atoms: _182  and  _184
REMARK   62  A    between atoms: _184  and  _185
REMARK   63  A    between atoms: _184  and  _187
REMARK   64  A    between atoms: _187  and  _188
REMARK   65  A    between atoms: _191  and  _193
REMARK   66  A    between atoms: _193  and  _194
REMARK   67  A    between atoms: _193  and  _196
REMARK   68  A    between atoms: _196  and  _197
REMARK   69  A    between atoms: _200  and  _202
REMARK   70  A    between atoms: _202  and  _203
REMARK   71  A    between atoms: _202  and  _205
REMARK   72  A    between atoms: _205  and  _206
REMARK   73  A    between atoms: _209  and  _211
REMARK   74  A    between atoms: _211  and  _212
REMARK   75  A    between atoms: _211  and  _214
REMARK   76  A    between atoms: _214  and  _215
REMARK   77  A    between atoms: _221  and  _223
REMARK   78  A    between atoms: _223  and  _224
REMARK   79  A    between atoms: _223  and  _226
REMARK   80  A    between atoms: _226  and  _227
REMARK   81  A    between atoms: _232  and  _233
REMARK   82  A    between atoms: _235  and  _237
REMARK   83  A    between atoms: _237  and  _238
REMARK   84  A    between atoms: _237  and  _240
REMARK   85  A    between atoms: _240  and  _241
REMARK   86  A    between atoms: _244  and  _246
REMARK   87  A    between atoms: _246  and  _247
REMARK   88  A    between atoms: _246  and  _249
REMARK   89  A    between atoms: _249  and  _250
REMARK   90  A    between atoms: _260  and  _262
REMARK   91  A    between atoms: _262  and  _263
REMARK   92  A    between atoms: _262  and  _265
REMARK   93  A    between atoms: _265  and  _266
REMARK   94  A    between atoms: _271  and  _273
REMARK   95  A    between atoms: _273  and  _274
REMARK   96  A    between atoms: _273  and  _276
REMARK   97  A    between atoms: _276  and  _277
REMARK   98  A    between atoms: _281  and  ZN_399
REMARK   99  A    between atoms: _282  and  _284
REMARK  100  A    between atoms: _284  and  _285
REMARK  101  A    between atoms: _284  and  _287
REMARK  102  A    between atoms: _287  and  _288
REMARK  103  A    between atoms: _291  and  _293
REMARK  104  A    between atoms: _293  and  _294
REMARK  105  A    between atoms: _296  and  _298
REMARK  106  A    between atoms: _298  and  _299
REMARK  107  A    between atoms: _298  and  _301
REMARK  108  A    between atoms: _301  and  _302
REMARK  109  A    between atoms: _305  and  _307
REMARK  110  A    between atoms: _307  and  _308
REMARK  111  A    between atoms: _307  and  _310
REMARK  112  A    between atoms: _310  and  _311
REMARK  113  A    between atoms: _314  and  _316
REMARK  114  A    between atoms: _316  and  _317
REMARK  115  A    between atoms: _320  and  _322
REMARK  116  A    between atoms: _322  and  _323
REMARK  117  A    between atoms: _326  and  _328
REMARK  118  A    between atoms: _328  and  _329
REMARK  119  A    between atoms: _328  and  _331
REMARK  120  A    between atoms: _331  and  _332
REMARK  121  A    between atoms: _337  and  _338
REMARK  122  A    between atoms: _340  and  _342
REMARK  123  A    between atoms: _342  and  _343
REMARK  124  A    between atoms: _342  and  _345
REMARK  125  A    between atoms: _345  and  _346
REMARK  126  A    between atoms: _349  and  _351
REMARK  127  A    between atoms: _351  and  _352
REMARK  128  A    between atoms: _351  and  _354
REMARK  129  A    between atoms: _354  and  _355
REMARK  130  A    between atoms: _358  and  _360
REMARK  131  A    between atoms: _360  and  _361
REMARK  132  A    between atoms: _360  and  _363
REMARK  133  A    between atoms: _363  and  _364
REMARK  134  A    between atoms: _364  and  _365
REMARK  135  A    between atoms: _368  and  _370
REMARK  136  A    between atoms: _370  and  _371
REMARK  137  A    between atoms: _370  and  _373
REMARK  138  A    between atoms: _373  and  _374
REMARK  139  A    between atoms: _374  and  _375
REMARK  140  A    between atoms: _375  and  _376
REMARK  141  A    between atoms: _385  and  _387
REMARK  142  A    between atoms: _387  and  _388
REMARK  143  A    between atoms: _390  and  _392
REMARK  144  A    between atoms: _392  and  _393
REMARK  145  A    between atoms: _392  and  _395
REMARK  146  A    between atoms: _395  and  _396
REMARK                            x       y       z     vdW  Elec       q    Type
REMARK                         _______ _______ _______ _____ _____    ______ ____
ROOT
ATOM      1  O   HOH     1      37.528  58.711  11.191  0.00  0.00    +0.000 OA
ENDROOT
TORSDOF 0
REMARK  Name = ../refined-set-2016/3d4z/3d4z_pocket.pdb
REMARK  146 active torsions:
REMARK  status: ('A' for Active; 'I' for Inactive)
REMARK    1  A    between atoms: _1  and  _3
REMARK    2  A    between atoms: _14  and  _17
REMARK    3  A    between atoms: _17  and  _18
REMARK    4  A    between atoms: _25  and  _26
REMARK    5  A    between atoms: _33  and  _34
REMARK    6  A    between atoms: _39  and  _41
REMARK    7  A    between atoms: _41  and  _42
REMARK    8  A    between atoms: _44  and  _46
REMARK    9  A    between atoms: _46  and  _47
REMARK   10  A    between atoms: _46  and  _49
REMARK   11  A    between atoms: _49  and  _50
REMARK   12  A    between atoms: _60  and  _62
REMARK   13  A    between atoms: _62  and  _63
REMARK   14  A    between atoms: _62  and  _65
REMARK   15  A    between atoms: _65  and  _66
REMARK   16  A    between atoms: _69  and  _71
REMARK   17  A    between atoms: _71  and  _72
REMARK   18  A    between atoms: _71  and  _74
REMARK   19  A    between atoms: _74  and  _75
REMARK   20  A    between atoms: _80  and  _81
REMARK   21  A    between atoms: _83  and  _85
REMARK   22  A    between atoms: _85  and  _86
REMARK   23  A    between atoms: _85  and  _88
REMARK   24  A    between atoms: _88  and  _89
REMARK   25  A    between atoms: _89  and  _90
REMARK   26  A    between atoms: _92  and  _94
REMARK   27  A    between atoms: _94  and  _95
REMARK   28  A    between atoms: _94  and  _97
REMARK   29  A    between atoms: _97  and  _98
REMARK   30  A    between atoms: _101  and  _103
REMARK   31  A    between atoms: _103  and  _104
REMARK   32  A    between atoms: _103  and  _106
REMARK   33  A    between atoms: _106  and  _107
REMARK   34  A    between atoms: _107  and  _109
REMARK   35  A    between atoms: _109  and  ZN_399
REMARK   36  A    between atoms: _111  and  _112
REMARK   37  A    between atoms: _117  and  _119
REMARK   38  A    between atoms: _119  and  _120
REMARK   39  A    between atoms: _119  and  _122
REMARK   40  A    between atoms: _122  and  _123
REMARK   41  A    between atoms: _129  and  _131
REMARK   42  A    between atoms: _131  and  _132
REMARK   43  A    between atoms: _131  and  _134
REMARK   44  A    between atoms: _134  and  _135
REMARK   45  A    between atoms: _135  and  _136
REMARK   46  A    between atoms: _136  and  _137
REMARK   47  A    between atoms: _146  and  _148
REMARK   48  A    between atoms: _148  and  _149
REMARK   49  A    between atoms: _148  and  _151
REMARK   50  A    between atoms: _151  and  _152
REMARK   51  A    between atoms: _157  and  _158
REMARK   52  A    between atoms: _160  and  _162
REMARK   53  A    between atoms: _162  and  _163
REMARK   54  A    between atoms: _162  and  _165
REMARK   55  A    between atoms: _165  and  _166
REMARK   56  A    between atoms: _168  and  _170
REMARK   57  A    between atoms: _170  and  _171
REMARK   58  A    between atoms: _170  and  _173
REMARK   59  A    between atoms: _173  and  _174
REMARK   60  A    between atoms: _179  and  _180
REMARK   61  A    between atoms: _182  and  _184
REMARK   62  A    between atoms: _184  and  _185
REMARK   63  A    between atoms: _184  and  _187
REMARK   64  A    between atoms: _187  and  _188
REMARK   65  A    between atoms: _191  and  _193
REMARK   66  A    between atoms: _193  and  _194
REMARK   67  A    between atoms: _193  and  _196
REMARK   68  A    between atoms: _196  and  _197
REMARK   69  A    between atoms: _200  and  _202
REMARK   70  A    between atoms: _202  and  _203
REMARK   71  A    between atoms: _202  and  _205
REMARK   72  A    between atoms: _205  and  _206
REMARK   73  A    between atoms: _209  and  _211
REMARK   74  A    between atoms: _211  and  _212
REMARK   75  A    between atoms: _211  and  _214
REMARK   76  A    between atoms: _214  and  _215
REMARK   77  A    between atoms: _221  and  _223
REMARK   78  A    between atoms: _223  and  _224
REMARK   79  A    between atoms: _223  and  _226
REMARK   80  A    between atoms: _226  and  _227
REMARK   81  A    between atoms: _232  and  _233
REMARK   82  A    between atoms: _235  and  _237
REMARK   83  A    between atoms: _237  and  _238
REMARK   84  A    between atoms: _237  and  _240
REMARK   85  A    between atoms: _240  and  _241
REMARK   86  A    between atoms: _244  and  _246
REMARK   87  A    between atoms: _246  and  _247
REMARK   88  A    between atoms: _246  and  _249
REMARK   89  A    between atoms: _249  and  _250
REMARK   90  A    between atoms: _260  and  _262
REMARK   91  A    between atoms: _262  and  _263
REMARK   92  A    between atoms: _262  and  _265
REMARK   93  A    between atoms: _265  and  _266
REMARK   94  A    between atoms: _271  and  _273
REMARK   95  A    between atoms: _273  and  _274
REMARK   96  A    between atoms: _273  and  _276
REMARK   97  A    between atoms: _276  and  _277
REMARK   98  A    between atoms: _281  and  ZN_399
REMARK   99  A    between atoms: _282  and  _284
REMARK  100  A    between atoms: _284  and  _285
REMARK  101  A    between atoms: _284  and  _287
REMARK  102  A    between atoms: _287  and  _288
REMARK  103  A    between atoms: _291  and  _293
REMARK  104  A    between atoms: _293  and  _294
REMARK  105  A    between atoms: _296  and  _298
REMARK  106  A    between atoms: _298  and  _299
REMARK  107  A    between atoms: _298  and  _301
REMARK  108  A    between atoms: _301  and  _302
REMARK  109  A    between atoms: _305  and  _307
REMARK  110  A    between atoms: _307  and  _308
REMARK  111  A    between atoms: _307  and  _310
REMARK  112  A    between atoms: _310  and  _311
REMARK  113  A    between atoms: _314  and  _316
REMARK  114  A    between atoms: _316  and  _317
REMARK  115  A    between atoms: _320  and  _322
REMARK  116  A    between atoms: _322  and  _323
REMARK  117  A    between atoms: _326  and  _328
REMARK  118  A    between atoms: _328  and  _329
REMARK  119  A    between atoms: _328  and  _331
REMARK  120  A    between atoms: _331  and  _332
REMARK  121  A    between atoms: _337  and  _338
REMARK  122  A    between atoms: _340  and  _342
REMARK  123  A    between atoms: _342  and  _343
REMARK  124  A    between atoms: _342  and  _345
REMARK  125  A    between atoms: _345  and  _346
REMARK  126  A    between atoms: _349  and  _351
REMARK  127  A    between atoms: _351  and  _352
REMARK  128  A    between atoms: _351  and  _354
REMARK  129  A    between atoms: _354  and  _355
REMARK  130  A    between atoms: _358  and  _360
REMARK  131  A    between atoms: _360  and  _361
REMARK  132  A    between atoms: _360  and  _363
REMARK  133  A    between atoms: _363  and  _364
REMARK  134  A    between atoms: _364  and  _365
REMARK  135  A    between atoms: _368  and  _370
REMARK  136  A    between atoms: _370  and  _371
REMARK  137  A    between atoms: _370  and  _373
REMARK  138  A    between atoms: _373  and  _374
REMARK  139  A    between atoms: _374  and  _375
REMARK  140  A    between atoms: _375  and  _376
REMARK  141  A    between atoms: _385  and  _387
REMARK  142  A    between atoms: _387  and  _388
REMARK  143  A    between atoms: _390  and  _392
REMARK  144  A    between atoms: _392  and  _393
REMARK  145  A    between atoms: _392  and  _395
REMARK  146  A    between atoms: _395  and  _396
REMARK                            x       y       z     vdW  Elec       q    Type
REMARK                         _______ _______ _______ _____ _____    ______ ____
ROOT
ATOM      1  O   HOH     1      38.594  61.900   8.467  0.00  0.00    +0.000 OA
ENDROOT
TORSDOF 0
REMARK  Name = ../refined-set-2016/3d4z/3d4z_pocket.pdb
REMARK  146 active torsions:
REMARK  status: ('A' for Active; 'I' for Inactive)
REMARK    1  A    between atoms: _1  and  _3
REMARK    2  A    between atoms: _14  and  _17
REMARK    3  A    between atoms: _17  and  _18
REMARK    4  A    between atoms: _25  and  _26
REMARK    5  A    between atoms: _33  and  _34
REMARK    6  A    between atoms: _39  and  _41
REMARK    7  A    between atoms: _41  and  _42
REMARK    8  A    between atoms: _44  and  _46
REMARK    9  A    between atoms: _46  and  _47
REMARK   10  A    between atoms: _46  and  _49
REMARK   11  A    between atoms: _49  and  _50
REMARK   12  A    between atoms: _60  and  _62
REMARK   13  A    between atoms: _62  and  _63
REMARK   14  A    between atoms: _62  and  _65
REMARK   15  A    between atoms: _65  and  _66
REMARK   16  A    between atoms: _69  and  _71
REMARK   17  A    between atoms: _71  and  _72
REMARK   18  A    between atoms: _71  and  _74
REMARK   19  A    between atoms: _74  and  _75
REMARK   20  A    between atoms: _80  and  _81
REMARK   21  A    between atoms: _83  and  _85
REMARK   22  A    between atoms: _85  and  _86
REMARK   23  A    between atoms: _85  and  _88
REMARK   24  A    between atoms: _88  and  _89
REMARK   25  A    between atoms: _89  and  _90
REMARK   26  A    between atoms: _92  and  _94
REMARK   27  A    between atoms: _94  and  _95
REMARK   28  A    between atoms: _94  and  _97
REMARK   29  A    between atoms: _97  and  _98
REMARK   30  A    between atoms: _101  and  _103
REMARK   31  A    between atoms: _103  and  _104
REMARK   32  A    between atoms: _103  and  _106
REMARK   33  A    between atoms: _106  and  _107
REMARK   34  A    between atoms: _107  and  _109
REMARK   35  A    between atoms: _109  and  ZN_399
REMARK   36  A    between atoms: _111  and  _112
REMARK   37  A    between atoms: _117  and  _119
REMARK   38  A    between atoms: _119  and  _120
REMARK   39  A    between atoms: _119  and  _122
REMARK   40  A    between atoms: _122  and  _123
REMARK   41  A    between atoms: _129  and  _131
REMARK   42  A    between atoms: _131  and  _132
REMARK   43  A    between atoms: _131  and  _134
REMARK   44  A    between atoms: _134  and  _135
REMARK   45  A    between atoms: _135  and  _136
REMARK   46  A    between atoms: _136  and  _137
REMARK   47  A    between atoms: _146  and  _148
REMARK   48  A    between atoms: _148  and  _149
REMARK   49  A    between atoms: _148  and  _151
REMARK   50  A    between atoms: _151  and  _152
REMARK   51  A    between atoms: _157  and  _158
REMARK   52  A    between atoms: _160  and  _162
REMARK   53  A    between atoms: _162  and  _163
REMARK   54  A    between atoms: _162  and  _165
REMARK   55  A    between atoms: _165  and  _166
REMARK   56  A    between atoms: _168  and  _170
REMARK   57  A    between atoms: _170  and  _171
REMARK   58  A    between atoms: _170  and  _173
REMARK   59  A    between atoms: _173  and  _174
REMARK   60  A    between atoms: _179  and  _180
REMARK   61  A    between atoms: _182  and  _184
REMARK   62  A    between atoms: _184  and  _185
REMARK   63  A    between atoms: _184  and  _187
REMARK   64  A    between atoms: _187  and  _188
REMARK   65  A    between atoms: _191  and  _193
REMARK   66  A    between atoms: _193  and  _194
REMARK   67  A    between atoms: _193  and  _196
REMARK   68  A    between atoms: _196  and  _197
REMARK   69  A    between atoms: _200  and  _202
REMARK   70  A    between atoms: _202  and  _203
REMARK   71  A    between atoms: _202  and  _205
REMARK   72  A    between atoms: _205  and  _206
REMARK   73  A    between atoms: _209  and  _211
REMARK   74  A    between atoms: _211  and  _212
REMARK   75  A    between atoms: _211  and  _214
REMARK   76  A    between atoms: _214  and  _215
REMARK   77  A    between atoms: _221  and  _223
REMARK   78  A    between atoms: _223  and  _224
REMARK   79  A    between atoms: _223  and  _226
REMARK   80  A    between atoms: _226  and  _227
REMARK   81  A    between atoms: _232  and  _233
REMARK   82  A    between atoms: _235  and  _237
REMARK   83  A    between atoms: _237  and  _238
REMARK   84  A    between atoms: _237  and  _240
REMARK   85  A    between atoms: _240  and  _241
REMARK   86  A    between atoms: _244  and  _246
REMARK   87  A    between atoms: _246  and  _247
REMARK   88  A    between atoms: _246  and  _249
REMARK   89  A    between atoms: _249  and  _250
REMARK   90  A    between atoms: _260  and  _262
REMARK   91  A    between atoms: _262  and  _263
REMARK   92  A    between atoms: _262  and  _265
REMARK   93  A    between atoms: _265  and  _266
REMARK   94  A    between atoms: _271  and  _273
REMARK   95  A    between atoms: _273  and  _274
REMARK   96  A    between atoms: _273  and  _276
REMARK   97  A    between atoms: _276  and  _277
REMARK   98  A    between atoms: _281  and  ZN_399
REMARK   99  A    between atoms: _282  and  _284
REMARK  100  A    between atoms: _284  and  _285
REMARK  101  A    between atoms: _284  and  _287
REMARK  102  A    between atoms: _287  and  _288
REMARK  103  A    between atoms: _291  and  _293
REMARK  104  A    between atoms: _293  and  _294
REMARK  105  A    between atoms: _296  and  _298
REMARK  106  A    between atoms: _298  and  _299
REMARK  107  A    between atoms: _298  and  _301
REMARK  108  A    between atoms: _301  and  _302
REMARK  109  A    between atoms: _305  and  _307
REMARK  110  A    between atoms: _307  and  _308
REMARK  111  A    between atoms: _307  and  _310
REMARK  112  A    between atoms: _310  and  _311
REMARK  113  A    between atoms: _314  and  _316
REMARK  114  A    between atoms: _316  and  _317
REMARK  115  A    between atoms: _320  and  _322
REMARK  116  A    between atoms: _322  and  _323
REMARK  117  A    between atoms: _326  and  _328
REMARK  118  A    between atoms: _328  and  _329
REMARK  119  A    between atoms: _328  and  _331
REMARK  120  A    between atoms: _331  and  _332
REMARK  121  A    between atoms: _337  and  _338
REMARK  122  A    between atoms: _340  and  _342
REMARK  123  A    between atoms: _342  and  _343
REMARK  124  A    between atoms: _342  and  _345
REMARK  125  A    between atoms: _345  and  _346
REMARK  126  A    between atoms: _349  and  _351
REMARK  127  A    between atoms: _351  and  _352
REMARK  128  A    between atoms: _351  and  _354
REMARK  129  A    between atoms: _354  and  _355
REMARK  130  A    between atoms: _358  and  _360
REMARK  131  A    between atoms: _360  and  _361
REMARK  132  A    between atoms: _360  and  _363
REMARK  133  A    between atoms: _363  and  _364
REMARK  134  A    between atoms: _364  and  _365
REMARK  135  A    between atoms: _368  and  _370
REMARK  136  A    between atoms: _370  and  _371
REMARK  137  A    between atoms: _370  and  _373
REMARK  138  A    between atoms: _373  and  _374
REMARK  139  A    between atoms: _374  and  _375
REMARK  140  A    between atoms: _375  and  _376
REMARK  141  A    between atoms: _385  and  _387
REMARK  142  A    between atoms: _387  and  _388
REMARK  143  A    between atoms: _390  and  _392
REMARK  144  A    between atoms: _392  and  _393
REMARK  145  A    between atoms: _392  and  _395
REMARK  146  A    between atoms: _395  and  _396
REMARK                            x       y       z     vdW  Elec       q    Type
REMARK                         _______ _______ _______ _____ _____    ______ ____
ROOT
ATOM      1  O   HOH     1      40.056  62.458   6.213  0.00  0.00    +0.000 OA
ENDROOT
TORSDOF 0
REMARK  Name = ../refined-set-2016/3d4z/3d4z_pocket.pdb
REMARK  146 active torsions:
REMARK  status: ('A' for Active; 'I' for Inactive)
REMARK    1  A    between atoms: _1  and  _3
REMARK    2  A    between atoms: _14  and  _17
REMARK    3  A    between atoms: _17  and  _18
REMARK    4  A    between atoms: _25  and  _26
REMARK    5  A    between atoms: _33  and  _34
REMARK    6  A    between atoms: _39  and  _41
REMARK    7  A    between atoms: _41  and  _42
REMARK    8  A    between atoms: _44  and  _46
REMARK    9  A    between atoms: _46  and  _47
REMARK   10  A    between atoms: _46  and  _49
REMARK   11  A    between atoms: _49  and  _50
REMARK   12  A    between atoms: _60  and  _62
REMARK   13  A    between atoms: _62  and  _63
REMARK   14  A    between atoms: _62  and  _65
REMARK   15  A    between atoms: _65  and  _66
REMARK   16  A    between atoms: _69  and  _71
REMARK   17  A    between atoms: _71  and  _72
REMARK   18  A    between atoms: _71  and  _74
REMARK   19  A    between atoms: _74  and  _75
REMARK   20  A    between atoms: _80  and  _81
REMARK   21  A    between atoms: _83  and  _85
REMARK   22  A    between atoms: _85  and  _86
REMARK   23  A    between atoms: _85  and  _88
REMARK   24  A    between atoms: _88  and  _89
REMARK   25  A    between atoms: _89  and  _90
REMARK   26  A    between atoms: _92  and  _94
REMARK   27  A    between atoms: _94  and  _95
REMARK   28  A    between atoms: _94  and  _97
REMARK   29  A    between atoms: _97  and  _98
REMARK   30  A    between atoms: _101  and  _103
REMARK   31  A    between atoms: _103  and  _104
REMARK   32  A    between atoms: _103  and  _106
REMARK   33  A    between atoms: _106  and  _107
REMARK   34  A    between atoms: _107  and  _109
REMARK   35  A    between atoms: _109  and  ZN_399
REMARK   36  A    between atoms: _111  and  _112
REMARK   37  A    between atoms: _117  and  _119
REMARK   38  A    between atoms: _119  and  _120
REMARK   39  A    between atoms: _119  and  _122
REMARK   40  A    between atoms: _122  and  _123
REMARK   41  A    between atoms: _129  and  _131
REMARK   42  A    between atoms: _131  and  _132
REMARK   43  A    between atoms: _131  and  _134
REMARK   44  A    between atoms: _134  and  _135
REMARK   45  A    between atoms: _135  and  _136
REMARK   46  A    between atoms: _136  and  _137
REMARK   47  A    between atoms: _146  and  _148
REMARK   48  A    between atoms: _148  and  _149
REMARK   49  A    between atoms: _148  and  _151
REMARK   50  A    between atoms: _151  and  _152
REMARK   51  A    between atoms: _157  and  _158
REMARK   52  A    between atoms: _160  and  _162
REMARK   53  A    between atoms: _162  and  _163
REMARK   54  A    between atoms: _162  and  _165
REMARK   55  A    between atoms: _165  and  _166
REMARK   56  A    between atoms: _168  and  _170
REMARK   57  A    between atoms: _170  and  _171
REMARK   58  A    between atoms: _170  and  _173
REMARK   59  A    between atoms: _173  and  _174
REMARK   60  A    between atoms: _179  and  _180
REMARK   61  A    between atoms: _182  and  _184
REMARK   62  A    between atoms: _184  and  _185
REMARK   63  A    between atoms: _184  and  _187
REMARK   64  A    between atoms: _187  and  _188
REMARK   65  A    between atoms: _191  and  _193
REMARK   66  A    between atoms: _193  and  _194
REMARK   67  A    between atoms: _193  and  _196
REMARK   68  A    between atoms: _196  and  _197
REMARK   69  A    between atoms: _200  and  _202
REMARK   70  A    between atoms: _202  and  _203
REMARK   71  A    between atoms: _202  and  _205
REMARK   72  A    between atoms: _205  and  _206
REMARK   73  A    between atoms: _209  and  _211
REMARK   74  A    between atoms: _211  and  _212
REMARK   75  A    between atoms: _211  and  _214
REMARK   76  A    between atoms: _214  and  _215
REMARK   77  A    between atoms: _221  and  _223
REMARK   78  A    between atoms: _223  and  _224
REMARK   79  A    between atoms: _223  and  _226
REMARK   80  A    between atoms: _226  and  _227
REMARK   81  A    between atoms: _232  and  _233
REMARK   82  A    between atoms: _235  and  _237
REMARK   83  A    between atoms: _237  and  _238
REMARK   84  A    between atoms: _237  and  _240
REMARK   85  A    between atoms: _240  and  _241
REMARK   86  A    between atoms: _244  and  _246
REMARK   87  A    between atoms: _246  and  _247
REMARK   88  A    between atoms: _246  and  _249
REMARK   89  A    between atoms: _249  and  _250
REMARK   90  A    between atoms: _260  and  _262
REMARK   91  A    between atoms: _262  and  _263
REMARK   92  A    between atoms: _262  and  _265
REMARK   93  A    between atoms: _265  and  _266
REMARK   94  A    between atoms: _271  and  _273
REMARK   95  A    between atoms: _273  and  _274
REMARK   96  A    between atoms: _273  and  _276
REMARK   97  A    between atoms: _276  and  _277
REMARK   98  A    between atoms: _281  and  ZN_399
REMARK   99  A    between atoms: _282  and  _284
REMARK  100  A    between atoms: _284  and  _285
REMARK  101  A    between atoms: _284  and  _287
REMARK  102  A    between atoms: _287  and  _288
REMARK  103  A    between atoms: _291  and  _293
REMARK  104  A    between atoms: _293  and  _294
REMARK  105  A    between atoms: _296  and  _298
REMARK  106  A    between atoms: _298  and  _299
REMARK  107  A    between atoms: _298  and  _301
REMARK  108  A    between atoms: _301  and  _302
REMARK  109  A    between atoms: _305  and  _307
REMARK  110  A    between atoms: _307  and  _308
REMARK  111  A    between atoms: _307  and  _310
REMARK  112  A    between atoms: _310  and  _311
REMARK  113  A    between atoms: _314  and  _316
REMARK  114  A    between atoms: _316  and  _317
REMARK  115  A    between atoms: _320  and  _322
REMARK  116  A    between atoms: _322  and  _323
REMARK  117  A    between atoms: _326  and  _328
REMARK  118  A    between atoms: _328  and  _329
REMARK  119  A    between atoms: _328  and  _331
REMARK  120  A    between atoms: _331  and  _332
REMARK  121  A    between atoms: _337  and  _338
REMARK  122  A    between atoms: _340  and  _342
REMARK  123  A    between atoms: _342  and  _343
REMARK  124  A    between atoms: _342  and  _345
REMARK  125  A    between atoms: _345  and  _346
REMARK  126  A    between atoms: _349  and  _351
REMARK  127  A    between atoms: _351  and  _352
REMARK  128  A    between atoms: _351  and  _354
REMARK  129  A    between atoms: _354  and  _355
REMARK  130  A    between atoms: _358  and  _360
REMARK  131  A    between atoms: _360  and  _361
REMARK  132  A    between atoms: _360  and  _363
REMARK  133  A    between atoms: _363  and  _364
REMARK  134  A    between atoms: _364  and  _365
REMARK  135  A    between atoms: _368  and  _370
REMARK  136  A    between atoms: _370  and  _371
REMARK  137  A    between atoms: _370  and  _373
REMARK  138  A    between atoms: _373  and  _374
REMARK  139  A    between atoms: _374  and  _375
REMARK  140  A    between atoms: _375  and  _376
REMARK  141  A    between atoms: _385  and  _387
REMARK  142  A    between atoms: _387  and  _388
REMARK  143  A    between atoms: _390  and  _392
REMARK  144  A    between atoms: _392  and  _393
REMARK  145  A    between atoms: _392  and  _395
REMARK  146  A    between atoms: _395  and  _396
REMARK                            x       y       z     vdW  Elec       q    Type
REMARK                         _______ _______ _______ _____ _____    ______ ____
ROOT
ATOM      1  O   HOH     1      28.335  63.302  11.039  0.00  0.00    +0.000 OA
ENDROOT
TORSDOF 0
REMARK  Name = ../refined-set-2016/3d4z/3d4z_pocket.pdb
REMARK  146 active torsions:
REMARK  status: ('A' for Active; 'I' for Inactive)
REMARK    1  A    between atoms: _1  and  _3
REMARK    2  A    between atoms: _14  and  _17
REMARK    3  A    between atoms: _17  and  _18
REMARK    4  A    between atoms: _25  and  _26
REMARK    5  A    between atoms: _33  and  _34
REMARK    6  A    between atoms: _39  and  _41
REMARK    7  A    between atoms: _41  and  _42
REMARK    8  A    between atoms: _44  and  _46
REMARK    9  A    between atoms: _46  and  _47
REMARK   10  A    between atoms: _46  and  _49
REMARK   11  A    between atoms: _49  and  _50
REMARK   12  A    between atoms: _60  and  _62
REMARK   13  A    between atoms: _62  and  _63
REMARK   14  A    between atoms: _62  and  _65
REMARK   15  A    between atoms: _65  and  _66
REMARK   16  A    between atoms: _69  and  _71
REMARK   17  A    between atoms: _71  and  _72
REMARK   18  A    between atoms: _71  and  _74
REMARK   19  A    between atoms: _74  and  _75
REMARK   20  A    between atoms: _80  and  _81
REMARK   21  A    between atoms: _83  and  _85
REMARK   22  A    between atoms: _85  and  _86
REMARK   23  A    between atoms: _85  and  _88
REMARK   24  A    between atoms: _88  and  _89
REMARK   25  A    between atoms: _89  and  _90
REMARK   26  A    between atoms: _92  and  _94
REMARK   27  A    between atoms: _94  and  _95
REMARK   28  A    between atoms: _94  and  _97
REMARK   29  A    between atoms: _97  and  _98
REMARK   30  A    between atoms: _101  and  _103
REMARK   31  A    between atoms: _103  and  _104
REMARK   32  A    between atoms: _103  and  _106
REMARK   33  A    between atoms: _106  and  _107
REMARK   34  A    between atoms: _107  and  _109
REMARK   35  A    between atoms: _109  and  ZN_399
REMARK   36  A    between atoms: _111  and  _112
REMARK   37  A    between atoms: _117  and  _119
REMARK   38  A    between atoms: _119  and  _120
REMARK   39  A    between atoms: _119  and  _122
REMARK   40  A    between atoms: _122  and  _123
REMARK   41  A    between atoms: _129  and  _131
REMARK   42  A    between atoms: _131  and  _132
REMARK   43  A    between atoms: _131  and  _134
REMARK   44  A    between atoms: _134  and  _135
REMARK   45  A    between atoms: _135  and  _136
REMARK   46  A    between atoms: _136  and  _137
REMARK   47  A    between atoms: _146  and  _148
REMARK   48  A    between atoms: _148  and  _149
REMARK   49  A    between atoms: _148  and  _151
REMARK   50  A    between atoms: _151  and  _152
REMARK   51  A    between atoms: _157  and  _158
REMARK   52  A    between atoms: _160  and  _162
REMARK   53  A    between atoms: _162  and  _163
REMARK   54  A    between atoms: _162  and  _165
REMARK   55  A    between atoms: _165  and  _166
REMARK   56  A    between atoms: _168  and  _170
REMARK   57  A    between atoms: _170  and  _171
REMARK   58  A    between atoms: _170  and  _173
REMARK   59  A    between atoms: _173  and  _174
REMARK   60  A    between atoms: _179  and  _180
REMARK   61  A    between atoms: _182  and  _184
REMARK   62  A    between atoms: _184  and  _185
REMARK   63  A    between atoms: _184  and  _187
REMARK   64  A    between atoms: _187  and  _188
REMARK   65  A    between atoms: _191  and  _193
REMARK   66  A    between atoms: _193  and  _194
REMARK   67  A    between atoms: _193  and  _196
REMARK   68  A    between atoms: _196  and  _197
REMARK   69  A    between atoms: _200  and  _202
REMARK   70  A    between atoms: _202  and  _203
REMARK   71  A    between atoms: _202  and  _205
REMARK   72  A    between atoms: _205  and  _206
REMARK   73  A    between atoms: _209  and  _211
REMARK   74  A    between atoms: _211  and  _212
REMARK   75  A    between atoms: _211  and  _214
REMARK   76  A    between atoms: _214  and  _215
REMARK   77  A    between atoms: _221  and  _223
REMARK   78  A    between atoms: _223  and  _224
REMARK   79  A    between atoms: _223  and  _226
REMARK   80  A    between atoms: _226  and  _227
REMARK   81  A    between atoms: _232  and  _233
REMARK   82  A    between atoms: _235  and  _237
REMARK   83  A    between atoms: _237  and  _238
REMARK   84  A    between atoms: _237  and  _240
REMARK   85  A    between atoms: _240  and  _241
REMARK   86  A    between atoms: _244  and  _246
REMARK   87  A    between atoms: _246  and  _247
REMARK   88  A    between atoms: _246  and  _249
REMARK   89  A    between atoms: _249  and  _250
REMARK   90  A    between atoms: _260  and  _262
REMARK   91  A    between atoms: _262  and  _263
REMARK   92  A    between atoms: _262  and  _265
REMARK   93  A    between atoms: _265  and  _266
REMARK   94  A    between atoms: _271  and  _273
REMARK   95  A    between atoms: _273  and  _274
REMARK   96  A    between atoms: _273  and  _276
REMARK   97  A    between atoms: _276  and  _277
REMARK   98  A    between atoms: _281  and  ZN_399
REMARK   99  A    between atoms: _282  and  _284
REMARK  100  A    between atoms: _284  and  _285
REMARK  101  A    between atoms: _284  and  _287
REMARK  102  A    between atoms: _287  and  _288
REMARK  103  A    between atoms: _291  and  _293
REMARK  104  A    between atoms: _293  and  _294
REMARK  105  A    between atoms: _296  and  _298
REMARK  106  A    between atoms: _298  and  _299
REMARK  107  A    between atoms: _298  and  _301
REMARK  108  A    between atoms: _301  and  _302
REMARK  109  A    between atoms: _305  and  _307
REMARK  110  A    between atoms: _307  and  _308
REMARK  111  A    between atoms: _307  and  _310
REMARK  112  A    between atoms: _310  and  _311
REMARK  113  A    between atoms: _314  and  _316
REMARK  114  A    between atoms: _316  and  _317
REMARK  115  A    between atoms: _320  and  _322
REMARK  116  A    between atoms: _322  and  _323
REMARK  117  A    between atoms: _326  and  _328
REMARK  118  A    between atoms: _328  and  _329
REMARK  119  A    between atoms: _328  and  _331
REMARK  120  A    between atoms: _331  and  _332
REMARK  121  A    between atoms: _337  and  _338
REMARK  122  A    between atoms: _340  and  _342
REMARK  123  A    between atoms: _342  and  _343
REMARK  124  A    between atoms: _342  and  _345
REMARK  125  A    between atoms: _345  and  _346
REMARK  126  A    between atoms: _349  and  _351
REMARK  127  A    between atoms: _351  and  _352
REMARK  128  A    between atoms: _351  and  _354
REMARK  129  A    between atoms: _354  and  _355
REMARK  130  A    between atoms: _358  and  _360
REMARK  131  A    between atoms: _360  and  _361
REMARK  132  A    between atoms: _360  and  _363
REMARK  133  A    between atoms: _363  and  _364
REMARK  134  A    between atoms: _364  and  _365
REMARK  135  A    between atoms: _368  and  _370
REMARK  136  A    between atoms: _370  and  _371
REMARK  137  A    between atoms: _370  and  _373
REMARK  138  A    between atoms: _373  and  _374
REMARK  139  A    between atoms: _374  and  _375
REMARK  140  A    between atoms: _375  and  _376
REMARK  141  A    between atoms: _385  and  _387
REMARK  142  A    between atoms: _387  and  _388
REMARK  143  A    between atoms: _390  and  _392
REMARK  144  A    between atoms: _392  and  _393
REMARK  145  A    between atoms: _392  and  _395
REMARK  146  A    between atoms: _395  and  _396
REMARK                            x       y       z     vdW  Elec       q    Type
REMARK                         _______ _______ _______ _____ _____    ______ ____
ROOT
ATOM      1  O   HOH     1      30.769  67.884  14.228  0.00  0.00    +0.000 OA
ENDROOT
TORSDOF 0
REMARK  Name = ../refined-set-2016/3d4z/3d4z_pocket.pdb
REMARK  146 active torsions:
REMARK  status: ('A' for Active; 'I' for Inactive)
REMARK    1  A    between atoms: _1  and  _3
REMARK    2  A    between atoms: _14  and  _17
REMARK    3  A    between atoms: _17  and  _18
REMARK    4  A    between atoms: _25  and  _26
REMARK    5  A    between atoms: _33  and  _34
REMARK    6  A    between atoms: _39  and  _41
REMARK    7  A    between atoms: _41  and  _42
REMARK    8  A    between atoms: _44  and  _46
REMARK    9  A    between atoms: _46  and  _47
REMARK   10  A    between atoms: _46  and  _49
REMARK   11  A    between atoms: _49  and  _50
REMARK   12  A    between atoms: _60  and  _62
REMARK   13  A    between atoms: _62  and  _63
REMARK   14  A    between atoms: _62  and  _65
REMARK   15  A    between atoms: _65  and  _66
REMARK   16  A    between atoms: _69  and  _71
REMARK   17  A    between atoms: _71  and  _72
REMARK   18  A    between atoms: _71  and  _74
REMARK   19  A    between atoms: _74  and  _75
REMARK   20  A    between atoms: _80  and  _81
REMARK   21  A    between atoms: _83  and  _85
REMARK   22  A    between atoms: _85  and  _86
REMARK   23  A    between atoms: _85  and  _88
REMARK   24  A    between atoms: _88  and  _89
REMARK   25  A    between atoms: _89  and  _90
REMARK   26  A    between atoms: _92  and  _94
REMARK   27  A    between atoms: _94  and  _95
REMARK   28  A    between atoms: _94  and  _97
REMARK   29  A    between atoms: _97  and  _98
REMARK   30  A    between atoms: _101  and  _103
REMARK   31  A    between atoms: _103  and  _104
REMARK   32  A    between atoms: _103  and  _106
REMARK   33  A    between atoms: _106  and  _107
REMARK   34  A    between atoms: _107  and  _109
REMARK   35  A    between atoms: _109  and  ZN_399
REMARK   36  A    between atoms: _111  and  _112
REMARK   37  A    between atoms: _117  and  _119
REMARK   38  A    between atoms: _119  and  _120
REMARK   39  A    between atoms: _119  and  _122
REMARK   40  A    between atoms: _122  and  _123
REMARK   41  A    between atoms: _129  and  _131
REMARK   42  A    between atoms: _131  and  _132
REMARK   43  A    between atoms: _131  and  _134
REMARK   44  A    between atoms: _134  and  _135
REMARK   45  A    between atoms: _135  and  _136
REMARK   46  A    between atoms: _136  and  _137
REMARK   47  A    between atoms: _146  and  _148
REMARK   48  A    between atoms: _148  and  _149
REMARK   49  A    between atoms: _148  and  _151
REMARK   50  A    between atoms: _151  and  _152
REMARK   51  A    between atoms: _157  and  _158
REMARK   52  A    between atoms: _160  and  _162
REMARK   53  A    between atoms: _162  and  _163
REMARK   54  A    between atoms: _162  and  _165
REMARK   55  A    between atoms: _165  and  _166
REMARK   56  A    between atoms: _168  and  _170
REMARK   57  A    between atoms: _170  and  _171
REMARK   58  A    between atoms: _170  and  _173
REMARK   59  A    between atoms: _173  and  _174
REMARK   60  A    between atoms: _179  and  _180
REMARK   61  A    between atoms: _182  and  _184
REMARK   62  A    between atoms: _184  and  _185
REMARK   63  A    between atoms: _184  and  _187
REMARK   64  A    between atoms: _187  and  _188
REMARK   65  A    between atoms: _191  and  _193
REMARK   66  A    between atoms: _193  and  _194
REMARK   67  A    between atoms: _193  and  _196
REMARK   68  A    between atoms: _196  and  _197
REMARK   69  A    between atoms: _200  and  _202
REMARK   70  A    between atoms: _202  and  _203
REMARK   71  A    between atoms: _202  and  _205
REMARK   72  A    between atoms: _205  and  _206
REMARK   73  A    between atoms: _209  and  _211
REMARK   74  A    between atoms: _211  and  _212
REMARK   75  A    between atoms: _211  and  _214
REMARK   76  A    between atoms: _214  and  _215
REMARK   77  A    between atoms: _221  and  _223
REMARK   78  A    between atoms: _223  and  _224
REMARK   79  A    between atoms: _223  and  _226
REMARK   80  A    between atoms: _226  and  _227
REMARK   81  A    between atoms: _232  and  _233
REMARK   82  A    between atoms: _235  and  _237
REMARK   83  A    between atoms: _237  and  _238
REMARK   84  A    between atoms: _237  and  _240
REMARK   85  A    between atoms: _240  and  _241
REMARK   86  A    between atoms: _244  and  _246
REMARK   87  A    between atoms: _246  and  _247
REMARK   88  A    between atoms: _246  and  _249
REMARK   89  A    between atoms: _249  and  _250
REMARK   90  A    between atoms: _260  and  _262
REMARK   91  A    between atoms: _262  and  _263
REMARK   92  A    between atoms: _262  and  _265
REMARK   93  A    between atoms: _265  and  _266
REMARK   94  A    between atoms: _271  and  _273
REMARK   95  A    between atoms: _273  and  _274
REMARK   96  A    between atoms: _273  and  _276
REMARK   97  A    between atoms: _276  and  _277
REMARK   98  A    between atoms: _281  and  ZN_399
REMARK   99  A    between atoms: _282  and  _284
REMARK  100  A    between atoms: _284  and  _285
REMARK  101  A    between atoms: _284  and  _287
REMARK  102  A    between atoms: _287  and  _288
REMARK  103  A    between atoms: _291  and  _293
REMARK  104  A    between atoms: _293  and  _294
REMARK  105  A    between atoms: _296  and  _298
REMARK  106  A    between atoms: _298  and  _299
REMARK  107  A    between atoms: _298  and  _301
REMARK  108  A    between atoms: _301  and  _302
REMARK  109  A    between atoms: _305  and  _307
REMARK  110  A    between atoms: _307  and  _308
REMARK  111  A    between atoms: _307  and  _310
REMARK  112  A    between atoms: _310  and  _311
REMARK  113  A    between atoms: _314  and  _316
REMARK  114  A    between atoms: _316  and  _317
REMARK  115  A    between atoms: _320  and  _322
REMARK  116  A    between atoms: _322  and  _323
REMARK  117  A    between atoms: _326  and  _328
REMARK  118  A    between atoms: _328  and  _329
REMARK  119  A    between atoms: _328  and  _331
REMARK  120  A    between atoms: _331  and  _332
REMARK  121  A    between atoms: _337  and  _338
REMARK  122  A    between atoms: _340  and  _342
REMARK  123  A    between atoms: _342  and  _343
REMARK  124  A    between atoms: _342  and  _345
REMARK  125  A    between atoms: _345  and  _346
REMARK  126  A    between atoms: _349  and  _351
REMARK  127  A    between atoms: _351  and  _352
REMARK  128  A    between atoms: _351  and  _354
REMARK  129  A    between atoms: _354  and  _355
REMARK  130  A    between atoms: _358  and  _360
REMARK  131  A    between atoms: _360  and  _361
REMARK  132  A    between atoms: _360  and  _363
REMARK  133  A    between atoms: _363  and  _364
REMARK  134  A    between atoms: _364  and  _365
REMARK  135  A    between atoms: _368  and  _370
REMARK  136  A    between atoms: _370  and  _371
REMARK  137  A    between atoms: _370  and  _373
REMARK  138  A    between atoms: _373  and  _374
REMARK  139  A    between atoms: _374  and  _375
REMARK  140  A    between atoms: _375  and  _376
REMARK  141  A    between atoms: _385  and  _387
REMARK  142  A    between atoms: _387  and  _388
REMARK  143  A    between atoms: _390  and  _392
REMARK  144  A    between atoms: _392  and  _393
REMARK  145  A    between atoms: _392  and  _395
REMARK  146  A    between atoms: _395  and  _396
REMARK                            x       y       z     vdW  Elec       q    Type
REMARK                         _______ _______ _______ _____ _____    ______ ____
ROOT
ATOM      1  O   HOH     1      24.264  62.993  11.740  0.00  0.00    +0.000 OA
ENDROOT
TORSDOF 0
REMARK  Name = ../refined-set-2016/3d4z/3d4z_pocket.pdb
REMARK  146 active torsions:
REMARK  status: ('A' for Active; 'I' for Inactive)
REMARK    1  A    between atoms: _1  and  _3
REMARK    2  A    between atoms: _14  and  _17
REMARK    3  A    between atoms: _17  and  _18
REMARK    4  A    between atoms: _25  and  _26
REMARK    5  A    between atoms: _33  and  _34
REMARK    6  A    between atoms: _39  and  _41
REMARK    7  A    between atoms: _41  and  _42
REMARK    8  A    between atoms: _44  and  _46
REMARK    9  A    between atoms: _46  and  _47
REMARK   10  A    between atoms: _46  and  _49
REMARK   11  A    between atoms: _49  and  _50
REMARK   12  A    between atoms: _60  and  _62
REMARK   13  A    between atoms: _62  and  _63
REMARK   14  A    between atoms: _62  and  _65
REMARK   15  A    between atoms: _65  and  _66
REMARK   16  A    between atoms: _69  and  _71
REMARK   17  A    between atoms: _71  and  _72
REMARK   18  A    between atoms: _71  and  _74
REMARK   19  A    between atoms: _74  and  _75
REMARK   20  A    between atoms: _80  and  _81
REMARK   21  A    between atoms: _83  and  _85
REMARK   22  A    between atoms: _85  and  _86
REMARK   23  A    between atoms: _85  and  _88
REMARK   24  A    between atoms: _88  and  _89
REMARK   25  A    between atoms: _89  and  _90
REMARK   26  A    between atoms: _92  and  _94
REMARK   27  A    between atoms: _94  and  _95
REMARK   28  A    between atoms: _94  and  _97
REMARK   29  A    between atoms: _97  and  _98
REMARK   30  A    between atoms: _101  and  _103
REMARK   31  A    between atoms: _103  and  _104
REMARK   32  A    between atoms: _103  and  _106
REMARK   33  A    between atoms: _106  and  _107
REMARK   34  A    between atoms: _107  and  _109
REMARK   35  A    between atoms: _109  and  ZN_399
REMARK   36  A    between atoms: _111  and  _112
REMARK   37  A    between atoms: _117  and  _119
REMARK   38  A    between atoms: _119  and  _120
REMARK   39  A    between atoms: _119  and  _122
REMARK   40  A    between atoms: _122  and  _123
REMARK   41  A    between atoms: _129  and  _131
REMARK   42  A    between atoms: _131  and  _132
REMARK   43  A    between atoms: _131  and  _134
REMARK   44  A    between atoms: _134  and  _135
REMARK   45  A    between atoms: _135  and  _136
REMARK   46  A    between atoms: _136  and  _137
REMARK   47  A    between atoms: _146  and  _148
REMARK   48  A    between atoms: _148  and  _149
REMARK   49  A    between atoms: _148  and  _151
REMARK   50  A    between atoms: _151  and  _152
REMARK   51  A    between atoms: _157  and  _158
REMARK   52  A    between atoms: _160  and  _162
REMARK   53  A    between atoms: _162  and  _163
REMARK   54  A    between atoms: _162  and  _165
REMARK   55  A    between atoms: _165  and  _166
REMARK   56  A    between atoms: _168  and  _170
REMARK   57  A    between atoms: _170  and  _171
REMARK   58  A    between atoms: _170  and  _173
REMARK   59  A    between atoms: _173  and  _174
REMARK   60  A    between atoms: _179  and  _180
REMARK   61  A    between atoms: _182  and  _184
REMARK   62  A    between atoms: _184  and  _185
REMARK   63  A    between atoms: _184  and  _187
REMARK   64  A    between atoms: _187  and  _188
REMARK   65  A    between atoms: _191  and  _193
REMARK   66  A    between atoms: _193  and  _194
REMARK   67  A    between atoms: _193  and  _196
REMARK   68  A    between atoms: _196  and  _197
REMARK   69  A    between atoms: _200  and  _202
REMARK   70  A    between atoms: _202  and  _203
REMARK   71  A    between atoms: _202  and  _205
REMARK   72  A    between atoms: _205  and  _206
REMARK   73  A    between atoms: _209  and  _211
REMARK   74  A    between atoms: _211  and  _212
REMARK   75  A    between atoms: _211  and  _214
REMARK   76  A    between atoms: _214  and  _215
REMARK   77  A    between atoms: _221  and  _223
REMARK   78  A    between atoms: _223  and  _224
REMARK   79  A    between atoms: _223  and  _226
REMARK   80  A    between atoms: _226  and  _227
REMARK   81  A    between atoms: _232  and  _233
REMARK   82  A    between atoms: _235  and  _237
REMARK   83  A    between atoms: _237  and  _238
REMARK   84  A    between atoms: _237  and  _240
REMARK   85  A    between atoms: _240  and  _241
REMARK   86  A    between atoms: _244  and  _246
REMARK   87  A    between atoms: _246  and  _247
REMARK   88  A    between atoms: _246  and  _249
REMARK   89  A    between atoms: _249  and  _250
REMARK   90  A    between atoms: _260  and  _262
REMARK   91  A    between atoms: _262  and  _263
REMARK   92  A    between atoms: _262  and  _265
REMARK   93  A    between atoms: _265  and  _266
REMARK   94  A    between atoms: _271  and  _273
REMARK   95  A    between atoms: _273  and  _274
REMARK   96  A    between atoms: _273  and  _276
REMARK   97  A    between atoms: _276  and  _277
REMARK   98  A    between atoms: _281  and  ZN_399
REMARK   99  A    between atoms: _282  and  _284
REMARK  100  A    between atoms: _284  and  _285
REMARK  101  A    between atoms: _284  and  _287
REMARK  102  A    between atoms: _287  and  _288
REMARK  103  A    between atoms: _291  and  _293
REMARK  104  A    between atoms: _293  and  _294
REMARK  105  A    between atoms: _296  and  _298
REMARK  106  A    between atoms: _298  and  _299
REMARK  107  A    between atoms: _298  and  _301
REMARK  108  A    between atoms: _301  and  _302
REMARK  109  A    between atoms: _305  and  _307
REMARK  110  A    between atoms: _307  and  _308
REMARK  111  A    between atoms: _307  and  _310
REMARK  112  A    between atoms: _310  and  _311
REMARK  113  A    between atoms: _314  and  _316
REMARK  114  A    between atoms: _316  and  _317
REMARK  115  A    between atoms: _320  and  _322
REMARK  116  A    between atoms: _322  and  _323
REMARK  117  A    between atoms: _326  and  _328
REMARK  118  A    between atoms: _328  and  _329
REMARK  119  A    between atoms: _328  and  _331
REMARK  120  A    between atoms: _331  and  _332
REMARK  121  A    between atoms: _337  and  _338
REMARK  122  A    between atoms: _340  and  _342
REMARK  123  A    between atoms: _342  and  _343
REMARK  124  A    between atoms: _342  and  _345
REMARK  125  A    between atoms: _345  and  _346
REMARK  126  A    between atoms: _349  and  _351
REMARK  127  A    between atoms: _351  and  _352
REMARK  128  A    between atoms: _351  and  _354
REMARK  129  A    between atoms: _354  and  _355
REMARK  130  A    between atoms: _358  and  _360
REMARK  131  A    between atoms: _360  and  _361
REMARK  132  A    between atoms: _360  and  _363
REMARK  133  A    between atoms: _363  and  _364
REMARK  134  A    between atoms: _364  and  _365
REMARK  135  A    between atoms: _368  and  _370
REMARK  136  A    between atoms: _370  and  _371
REMARK  137  A    between atoms: _370  and  _373
REMARK  138  A    between atoms: _373  and  _374
REMARK  139  A    between atoms: _374  and  _375
REMARK  140  A    between atoms: _375  and  _376
REMARK  141  A    between atoms: _385  and  _387
REMARK  142  A    between atoms: _387  and  _388
REMARK  143  A    between atoms: _390  and  _392
REMARK  144  A    between atoms: _392  and  _393
REMARK  145  A    between atoms: _392  and  _395
REMARK  146  A    between atoms: _395  and  _396
REMARK                            x       y       z     vdW  Elec       q    Type
REMARK                         _______ _______ _______ _____ _____    ______ ____
ROOT
ATOM      1  O   HOH     1      22.239  64.789  11.673  0.00  0.00    +0.000 OA
ENDROOT
TORSDOF 0
REMARK  Name = ../refined-set-2016/3d4z/3d4z_pocket.pdb
REMARK  146 active torsions:
REMARK  status: ('A' for Active; 'I' for Inactive)
REMARK    1  A    between atoms: _1  and  _3
REMARK    2  A    between atoms: _14  and  _17
REMARK    3  A    between atoms: _17  and  _18
REMARK    4  A    between atoms: _25  and  _26
REMARK    5  A    between atoms: _33  and  _34
REMARK    6  A    between atoms: _39  and  _41
REMARK    7  A    between atoms: _41  and  _42
REMARK    8  A    between atoms: _44  and  _46
REMARK    9  A    between atoms: _46  and  _47
REMARK   10  A    between atoms: _46  and  _49
REMARK   11  A    between atoms: _49  and  _50
REMARK   12  A    between atoms: _60  and  _62
REMARK   13  A    between atoms: _62  and  _63
REMARK   14  A    between atoms: _62  and  _65
REMARK   15  A    between atoms: _65  and  _66
REMARK   16  A    between atoms: _69  and  _71
REMARK   17  A    between atoms: _71  and  _72
REMARK   18  A    between atoms: _71  and  _74
REMARK   19  A    between atoms: _74  and  _75
REMARK   20  A    between atoms: _80  and  _81
REMARK   21  A    between atoms: _83  and  _85
REMARK   22  A    between atoms: _85  and  _86
REMARK   23  A    between atoms: _85  and  _88
REMARK   24  A    between atoms: _88  and  _89
REMARK   25  A    between atoms: _89  and  _90
REMARK   26  A    between atoms: _92  and  _94
REMARK   27  A    between atoms: _94  and  _95
REMARK   28  A    between atoms: _94  and  _97
REMARK   29  A    between atoms: _97  and  _98
REMARK   30  A    between atoms: _101  and  _103
REMARK   31  A    between atoms: _103  and  _104
REMARK   32  A    between atoms: _103  and  _106
REMARK   33  A    between atoms: _106  and  _107
REMARK   34  A    between atoms: _107  and  _109
REMARK   35  A    between atoms: _109  and  ZN_399
REMARK   36  A    between atoms: _111  and  _112
REMARK   37  A    between atoms: _117  and  _119
REMARK   38  A    between atoms: _119  and  _120
REMARK   39  A    between atoms: _119  and  _122
REMARK   40  A    between atoms: _122  and  _123
REMARK   41  A    between atoms: _129  and  _131
REMARK   42  A    between atoms: _131  and  _132
REMARK   43  A    between atoms: _131  and  _134
REMARK   44  A    between atoms: _134  and  _135
REMARK   45  A    between atoms: _135  and  _136
REMARK   46  A    between atoms: _136  and  _137
REMARK   47  A    between atoms: _146  and  _148
REMARK   48  A    between atoms: _148  and  _149
REMARK   49  A    between atoms: _148  and  _151
REMARK   50  A    between atoms: _151  and  _152
REMARK   51  A    between atoms: _157  and  _158
REMARK   52  A    between atoms: _160  and  _162
REMARK   53  A    between atoms: _162  and  _163
REMARK   54  A    between atoms: _162  and  _165
REMARK   55  A    between atoms: _165  and  _166
REMARK   56  A    between atoms: _168  and  _170
REMARK   57  A    between atoms: _170  and  _171
REMARK   58  A    between atoms: _170  and  _173
REMARK   59  A    between atoms: _173  and  _174
REMARK   60  A    between atoms: _179  and  _180
REMARK   61  A    between atoms: _182  and  _184
REMARK   62  A    between atoms: _184  and  _185
REMARK   63  A    between atoms: _184  and  _187
REMARK   64  A    between atoms: _187  and  _188
REMARK   65  A    between atoms: _191  and  _193
REMARK   66  A    between atoms: _193  and  _194
REMARK   67  A    between atoms: _193  and  _196
REMARK   68  A    between atoms: _196  and  _197
REMARK   69  A    between atoms: _200  and  _202
REMARK   70  A    between atoms: _202  and  _203
REMARK   71  A    between atoms: _202  and  _205
REMARK   72  A    between atoms: _205  and  _206
REMARK   73  A    between atoms: _209  and  _211
REMARK   74  A    between atoms: _211  and  _212
REMARK   75  A    between atoms: _211  and  _214
REMARK   76  A    between atoms: _214  and  _215
REMARK   77  A    between atoms: _221  and  _223
REMARK   78  A    between atoms: _223  and  _224
REMARK   79  A    between atoms: _223  and  _226
REMARK   80  A    between atoms: _226  and  _227
REMARK   81  A    between atoms: _232  and  _233
REMARK   82  A    between atoms: _235  and  _237
REMARK   83  A    between atoms: _237  and  _238
REMARK   84  A    between atoms: _237  and  _240
REMARK   85  A    between atoms: _240  and  _241
REMARK   86  A    between atoms: _244  and  _246
REMARK   87  A    between atoms: _246  and  _247
REMARK   88  A    between atoms: _246  and  _249
REMARK   89  A    between atoms: _249  and  _250
REMARK   90  A    between atoms: _260  and  _262
REMARK   91  A    between atoms: _262  and  _263
REMARK   92  A    between atoms: _262  and  _265
REMARK   93  A    between atoms: _265  and  _266
REMARK   94  A    between atoms: _271  and  _273
REMARK   95  A    between atoms: _273  and  _274
REMARK   96  A    between atoms: _273  and  _276
REMARK   97  A    between atoms: _276  and  _277
REMARK   98  A    between atoms: _281  and  ZN_399
REMARK   99  A    between atoms: _282  and  _284
REMARK  100  A    between atoms: _284  and  _285
REMARK  101  A    between atoms: _284  and  _287
REMARK  102  A    between atoms: _287  and  _288
REMARK  103  A    between atoms: _291  and  _293
REMARK  104  A    between atoms: _293  and  _294
REMARK  105  A    between atoms: _296  and  _298
REMARK  106  A    between atoms: _298  and  _299
REMARK  107  A    between atoms: _298  and  _301
REMARK  108  A    between atoms: _301  and  _302
REMARK  109  A    between atoms: _305  and  _307
REMARK  110  A    between atoms: _307  and  _308
REMARK  111  A    between atoms: _307  and  _310
REMARK  112  A    between atoms: _310  and  _311
REMARK  113  A    between atoms: _314  and  _316
REMARK  114  A    between atoms: _316  and  _317
REMARK  115  A    between atoms: _320  and  _322
REMARK  116  A    between atoms: _322  and  _323
REMARK  117  A    between atoms: _326  and  _328
REMARK  118  A    between atoms: _328  and  _329
REMARK  119  A    between atoms: _328  and  _331
REMARK  120  A    between atoms: _331  and  _332
REMARK  121  A    between atoms: _337  and  _338
REMARK  122  A    between atoms: _340  and  _342
REMARK  123  A    between atoms: _342  and  _343
REMARK  124  A    between atoms: _342  and  _345
REMARK  125  A    between atoms: _345  and  _346
REMARK  126  A    between atoms: _349  and  _351
REMARK  127  A    between atoms: _351  and  _352
REMARK  128  A    between atoms: _351  and  _354
REMARK  129  A    between atoms: _354  and  _355
REMARK  130  A    between atoms: _358  and  _360
REMARK  131  A    between atoms: _360  and  _361
REMARK  132  A    between atoms: _360  and  _363
REMARK  133  A    between atoms: _363  and  _364
REMARK  134  A    between atoms: _364  and  _365
REMARK  135  A    between atoms: _368  and  _370
REMARK  136  A    between atoms: _370  and  _371
REMARK  137  A    between atoms: _370  and  _373
REMARK  138  A    between atoms: _373  and  _374
REMARK  139  A    between atoms: _374  and  _375
REMARK  140  A    between atoms: _375  and  _376
REMARK  141  A    between atoms: _385  and  _387
REMARK  142  A    between atoms: _387  and  _388
REMARK  143  A    between atoms: _390  and  _392
REMARK  144  A    between atoms: _392  and  _393
REMARK  145  A    between atoms: _392  and  _395
REMARK  146  A    between atoms: _395  and  _396
REMARK                            x       y       z     vdW  Elec       q    Type
REMARK                         _______ _______ _______ _____ _____    ______ ____
ROOT
ATOM      1  O   HOH     1      23.265  71.432  11.213  0.00  0.00    +0.000 OA
ENDROOT
TORSDOF 0
